 18
-458.94787197150714
H      2.46624     1.19913    -1.57347
O      1.64991     0.77888    -1.30669
H      1.80317     0.38752    -0.41817
H     -0.95936    -0.36920     1.63114
O     -0.84632     0.55371     1.91733
H     -1.55118     0.74954     2.53400
H      0.22103    -0.56381    -1.97722
O     -0.67685    -0.84796    -1.75663
H     -1.10464     0.00061    -1.53117
H     -0.62691    -1.62401    -0.25552
O     -0.53859    -1.90175     0.69258
H     -0.82823    -2.81042     0.75496
H      1.14986     0.27071     1.66055
O      1.75264    -0.29479     1.16152
H      1.25655    -1.12189     1.09201
H     -0.94464     1.49556     0.21346
O     -0.96164     1.67956    -0.73486
H     -0.03147     1.67840    -0.99887
