 27
-688.4337482641969
H      0.97336     1.01338     1.24644
O      1.67737     0.70978     0.65974
H      1.93372    -0.14301     1.03536
H      0.68840    -2.12236    -1.13618
O      0.40445    -2.77785    -0.48027
H     -0.56406    -2.66887    -0.46926
H     -3.01736    -2.12315    -0.93336
O     -2.20363    -1.95833    -0.46007
H     -2.14885    -0.99397    -0.30170
H      1.44608     1.63791    -2.10753
O      1.67170     2.41548    -1.58144
H      1.99441     2.03126    -0.75391
H     -0.42064    -0.15290    -1.64283
O      0.53618    -0.22259    -1.72653
H      0.88667     0.07109    -0.86637
H      0.05983    -0.63091     2.39039
O     -0.43549     0.20614     2.47269
H     -0.89493     0.19270     3.31246
H      0.96962    -2.27955     0.99428
O      1.27326    -1.82666     1.83128
H      1.80212    -2.45841     2.31581
H     -1.26846     3.56994    -1.62514
O     -0.86446     3.03918    -0.93819
H      0.08172     2.93195    -1.18678
H     -1.40003     0.60751     0.92361
O     -1.78652     0.65472     0.03598
H     -1.50980     1.51269    -0.33252
