  9
-229.45119281784
H      1.00059    -2.87545     0.43010
O      1.23148    -2.08881    -0.06537
H      0.50466    -1.46113     0.07519
H     -1.13461    -0.58571    -0.95095
O     -0.93895    -0.37492    -0.03561
H     -0.81623     0.58613    -0.01248
H     -0.55630     2.76688     1.04735
O     -0.39004     2.42703     0.16566
H      0.55964     2.50710     0.04923
