 18
-458.93458368187214
H      1.14418     1.01660    -0.28542
O      0.89533     1.20432     0.63656
H      0.31480     1.97788     0.60602
H      1.03343    -2.01832     0.09884
O      1.44147    -1.87965     0.95874
H      1.62488    -0.93386     0.97998
H     -1.11801    -1.22823    -0.64784
O     -0.71224    -1.64195    -1.43173
H     -1.42452    -1.91703    -2.00997
H      0.66408    -0.52967    -1.85029
O      1.35903     0.15178    -1.86247
H      2.17151    -0.29069    -2.11462
H     -0.44849     0.14358     1.00550
O     -1.28181    -0.37972     1.01714
H     -1.10216    -1.09638     1.63195
H     -1.87390     2.97837     1.50080
O     -1.54540     2.58796     0.69034
H     -1.90155     1.69094     0.68868
