 27
-688.4284436497392
H      2.46417    -3.31913    -0.79329
O      2.52984    -2.38268    -0.98382
H      1.85497    -2.19319    -1.65656
H     -0.32659    -1.66257    -1.80727
O      0.31491    -1.65345    -2.55858
H     -0.14305    -1.97374    -3.33405
H      0.37949     0.97550     2.83312
O      1.15240     0.49477     3.17931
H      1.71005     1.14427     3.60681
H     -0.54677     1.68478    -1.20685
O     -1.32649     2.11376    -0.75728
H     -1.56899     2.86579    -1.29656
H      1.52860    -0.18953     1.52720
O      1.41856    -0.36497     0.57808
H      2.00439    -1.08923     0.30127
H     -0.93965     1.98617     0.95883
O     -0.93700     1.86416     1.92801
H     -1.21445     2.69992     2.30580
H     -1.84386    -0.94893     0.01538
O     -1.04603    -1.43213    -0.26921
H     -0.29205    -1.03120     0.20036
H      1.21452     0.68478    -0.88742
O      0.86251     1.00943    -1.73665
H      0.76460     0.20732    -2.27058
H     -2.72319     0.96080    -0.06223
O     -3.01767     0.31350     0.59317
H     -2.56566     0.60857     1.39175
