 18
-458.9401951162357
H      2.26854     0.09096     0.45543
O      2.52459     0.55788    -0.36847
H      3.16874     1.21817    -0.11644
H     -1.12089    -1.63607     0.61743
O     -0.58957    -2.12452     1.28722
H     -0.55014    -3.02918     0.97580
H     -1.09916    -0.46633    -1.20800
O     -1.85019    -0.75218    -0.67028
H     -2.27340     0.09440    -0.46425
H      1.04735     0.80565    -1.18758
O      0.20774     0.93955    -1.68132
H      0.44441     1.01204    -2.60637
H      1.55526    -0.42526     2.76802
O      1.64968    -0.71167     1.85961
H      0.84674    -1.23820     1.65454
H     -1.20935     1.87403    -0.86688
O     -2.06540     2.01604    -0.43073
H     -1.87040     2.48176     0.38284
