  9
-229.45877816735438
H      1.48519    -1.56304    -0.46225
O      1.10692    -0.94699     0.16552
H      0.14523    -1.09439     0.13883
H     -1.29551     0.47202    -0.04413
O     -1.64576    -0.43134     0.04260
H     -2.19186    -0.41657     0.82945
H      0.49567     2.16559    -0.85207
O      0.17665     1.68824    -0.08608
H      0.79322     0.94714     0.04110
