 27
-688.4414809049057
H      1.61222    -2.46181    -2.25537
O      1.19695    -1.78607    -1.72253
H      0.30201    -2.11740    -1.45124
H     -1.07280    -2.20828     0.21391
O     -1.22273    -2.23953    -0.74295
H     -1.67248    -1.40605    -0.95307
H      1.86388     0.56439     0.27328
O      1.76090    -0.33633     0.61863
H      1.75034    -0.90614    -0.16685
H      1.12056     1.84344    -1.22179
O      1.59935     2.25343    -0.45726
H      2.23074     2.87357    -0.82047
H      1.09871     1.13821     2.20882
O      0.51350     1.89329     2.10347
H      0.81736     2.29664     1.27846
H     -1.14307     1.25921     1.87747
O     -1.90490     0.68953     1.65574
H     -1.60660    -0.19973     1.89416
H     -0.00748    -2.17516     2.56734
O     -0.30654    -1.61914     1.84991
H      0.46967    -1.12433     1.51184
H      0.78139    -0.05586    -2.26805
O      0.35969     0.81520    -2.31076
H     -0.52844     0.68332    -1.93870
H     -2.07863     0.61540    -0.01436
O     -2.10718     0.41526    -0.98674
H     -2.93091     0.77408    -1.31714
