 18
-458.94187801367985
H      1.47742    -0.55164    -0.11354
O      1.60841    -0.72691    -1.05509
H      2.18049    -1.49437    -1.09376
H      0.03363    -1.32119     1.60244
O     -0.40739    -2.15474     1.36479
H     -0.91047    -2.41957     2.13459
H     -1.12259    -1.64519    -0.32647
O     -1.20919    -1.07387    -1.10562
H     -0.30074    -1.00236    -1.42844
H      1.33099     1.54661    -1.16739
O      1.05897     2.17545    -0.49221
H      0.08957     2.12360    -0.49369
H     -0.32044     0.74077     1.48890
O      0.59635     0.44112     1.55471
H      1.05504     1.13523     1.04745
H     -2.41147     1.80868    -0.42963
O     -1.61951     1.38099    -0.10337
H     -1.58253     0.48624    -0.51900
