 15
-382.4336754950341
H     -0.17800    -0.47815    -0.21291
O      0.70883    -0.60326     0.13578
H      1.04708     0.30319     0.21410
H     -2.04056    -1.08925     0.70870
O     -2.19081    -0.56978    -0.08527
H     -2.41474    -1.20708    -0.76669
H     -1.92829     1.30330    -0.10768
O     -1.66898     2.23459    -0.08751
H     -2.15625     2.62400     0.63927
H      0.11217     2.27149     0.05528
O      1.07073     2.12287     0.16472
H      1.50183     2.61849    -0.53289
H      1.50374    -2.24005    -0.00088
O      1.87460    -3.13165    -0.08245
H      2.82124    -3.02899     0.01736
