  9
-229.45121361794378
H      1.03853    -2.51557    -0.65265
O      0.41970    -2.29904     0.04805
H     -0.44625    -2.43209    -0.34477
H      0.15597     0.63417     1.54524
O      0.57199     0.48694     0.69341
H      0.54674    -0.47221     0.55495
H     -0.86576     2.87541    -0.88915
O     -1.29179     2.06784    -0.59939
H     -0.58305     1.49944    -0.25767
