 15
-382.44829017715386
H     -1.69557    -0.41811    -0.08731
O     -2.04228     0.43436    -0.42728
H     -2.11798     0.31965    -1.37465
H      0.05065    -1.73384     0.29435
O     -0.90916    -1.85657     0.46119
H     -1.10986    -2.74987     0.18355
H     -0.63170     2.33691     1.58453
O     -0.36378     2.25562     0.66892
H     -1.01802     1.64799     0.26049
H      2.09630     1.70861    -1.10176
O      1.97013     1.24871    -0.27168
H      1.16893     1.65092     0.12638
H      2.39645    -1.70668     0.55279
O      1.71386    -1.44273    -0.06505
H      1.82704    -0.47474    -0.17752
