  9
-229.45878239352388
H      0.28220    -1.31123     0.28449
O      1.21620    -1.04152     0.31893
H      1.52619    -1.31077     1.18445
H     -1.34290     0.06587     0.05544
O     -1.57216    -0.87618     0.13070
H     -2.13658    -1.06878    -0.61806
H      0.25701     1.95055    -0.88309
O     -0.00868     1.44162    -0.11685
H      0.68265     0.76838     0.00995
