  9
-229.45859530283758
H      1.52644    -1.83374    -0.29626
O      1.15159    -0.95588    -0.22495
H      0.18473    -1.06332    -0.20658
H     -1.18259     0.52933     0.16451
O     -1.56538    -0.36188     0.08422
H     -2.02849    -0.51456     0.90887
H      0.51432     2.26885    -0.54515
O      0.32465     1.70704     0.20654
H      0.93481     0.95801     0.11908
