 27
-688.4246300646302
H     -1.89526     0.09803    -0.15887
O     -1.50373     0.45839     0.65685
H     -1.37939     1.41437     0.51557
H     -0.00485    -2.95200    -0.33474
O     -0.27117    -2.84821    -1.28501
H     -0.29709    -3.73138    -1.65198
H     -1.30155    -1.03637     3.50143
O     -1.30426    -1.43655     2.63263
H     -1.43965    -0.71394     1.98913
H      2.22644     2.78451    -0.81854
O      1.58810     3.46734    -1.11479
H      1.59932     3.42391    -2.07195
H      2.44782     0.70038    -0.28882
O      3.14432     1.38325    -0.35701
H      3.69079     1.29751     0.42439
H      0.20356     0.02031     0.23233
O      1.01332    -0.34791    -0.17645
H      0.70272    -0.86197    -0.93233
H      1.11469    -1.96823     1.00460
O      0.61183    -2.76702     1.21677
H     -0.06875    -2.44942     1.83792
H      0.05796     3.14603    -0.37412
O     -0.81520     3.03173     0.06122
H     -1.02129     3.87689     0.46042
H     -3.02561    -1.24515    -1.88409
O     -2.17378    -0.88699    -1.63346
H     -1.55319    -1.63750    -1.58057
