  9
-229.4587713319846
H      1.69942    -1.35856    -0.14507
O      1.23137    -0.74094     0.41718
H      0.28710    -0.95759     0.32430
H     -2.14611    -0.40522     0.76768
O     -1.52721    -0.42950     0.03705
H     -1.22999     0.48935    -0.07915
H      0.80654     1.11542     0.14373
O      0.15598     1.80259    -0.08029
H      0.50996     2.26003    -0.84296
