 27
-688.4387210324757
H     -0.12245    -0.29670     2.12874
O     -0.14735     0.66571     2.02688
H     -0.92315     0.83653     1.47206
H     -0.63765    -0.92574    -2.35174
O     -0.62428    -1.89010    -2.26227
H      0.28868    -2.08542    -2.03488
H     -2.46243    -0.30821     0.23545
O     -2.38383     0.67707     0.34190
H     -3.26562     1.03924     0.41887
H      1.37319     1.22897     1.57141
O      2.25998     1.54828     1.26876
H      2.65377     1.99166     2.02076
H     -1.07541     0.95522    -0.94157
O     -0.28637     0.79360    -1.48284
H      0.25998     1.59855    -1.42734
H      2.20494    -0.29569    -0.09238
O      1.55662    -0.89933    -0.46848
H      0.85915    -0.31943    -0.84841
H      0.63140    -2.83618     1.98625
O      0.21711    -2.08355     1.56681
H      0.80612    -1.78554     0.84022
H      1.78230     2.51073    -0.14314
O      1.36857     2.89417    -0.94131
H      2.07362     3.25414    -1.47939
H     -1.44667    -2.15053     0.67973
O     -2.13974    -1.94389     0.03582
H     -1.71995    -2.06707    -0.83664
