 21
-535.440648126244
H     -1.44829     0.29769     1.21730
O     -2.17101     0.01411     0.64222
H     -2.16193     0.66846    -0.07394
H      0.54841     1.30790     2.52874
O      0.28369     0.87969     1.71633
H      0.61777     1.41278     0.97122
H      2.04513    -0.93791    -0.52956
O      2.48901    -0.36203    -1.20542
H      2.61222    -0.90415    -1.98467
H     -1.64857     1.71644    -2.24530
O     -1.53844     1.89001    -1.31012
H     -0.58224     1.91153    -1.14800
H      0.32473    -2.11024     0.47851
O      1.14705    -1.65351     0.73208
H      0.85369    -0.90518     1.26991
H      1.71940     1.12676    -0.94228
O      1.21215     1.92575    -0.65406
H      1.78553     2.68367    -0.76897
H     -1.97571    -3.14936     0.45191
O     -1.38262    -2.51273     0.05313
H     -1.78199    -1.62650     0.21357
