 18
-458.9441723459775
H      1.81408     1.91169    -0.08550
O      1.09150     1.33708    -0.33898
H      0.25469     1.81505    -0.12837
H      0.85757    -2.08848    -1.37805
O      0.79390    -2.80966    -0.71919
H      1.55809    -3.37061    -0.85826
H      0.81283    -0.25543     0.78970
O      0.33779    -0.95234     1.26119
H      0.45251    -1.73901     0.70126
H      0.98968     0.12528    -1.66745
O      0.90536    -0.59381    -2.31718
H      0.12524    -0.39152    -2.83605
H     -2.22512     0.16738     2.77788
O     -1.98007     0.31930     1.86499
H     -1.20125    -0.25580     1.68276
H     -1.96074     2.66542    -0.20855
O     -1.23662     2.45734     0.38277
H     -1.57788     1.75356     0.97911
