 27
-688.4283200618432
H      1.83472     0.09889    -1.34651
O      1.41816    -0.08173    -2.19641
H      1.26485    -1.04333    -2.18789
H      0.33301    -2.70748    -0.91573
O      0.82004    -2.70706    -1.76987
H      0.45505    -3.41791    -2.29525
H      1.05543     1.46984     0.55562
O      1.18314     0.51062     0.59756
H      0.40595     0.13056     0.17163
H     -0.21027     2.63936    -0.90624
O      0.13369     3.06748    -0.07878
H      0.62828     3.84244    -0.34399
H      1.43015    -0.76037     1.92816
O      1.18549    -1.50831     2.49656
H      2.00687    -1.93100     2.74835
H     -0.93575     2.48140     1.27512
O     -1.47677     1.89995     1.83803
H     -0.87662     1.55099     2.50210
H     -1.16163    -1.75298     0.45295
O     -0.55484    -2.49874     0.55223
H     -0.01525    -2.28906     1.33011
H     -0.00858     0.97198    -2.28814
O     -0.78394     1.51914    -2.04388
H     -1.36386     0.91350    -1.56200
H     -1.86192     0.61088     0.77591
O     -1.98038    -0.08140     0.08532
H     -2.92880    -0.20908     0.00826
