 27
-688.4421488601824
H      2.61211    -1.78188    -0.99286
O      1.88879    -1.18883    -0.78922
H      1.05105    -1.70882    -0.92136
H     -0.90106    -2.51317    -0.39788
O     -0.45465    -2.35679    -1.24995
H     -0.93925    -1.61276    -1.63773
H      1.60030     1.37197     1.06514
O      1.85682     0.52442     1.45938
H      1.97694    -0.07874     0.70717
H      1.05492     3.54366    -0.13106
O      0.80327     2.62505    -0.04870
H      0.90506     2.19959    -0.93819
H     -1.30821     0.72145     1.43441
O     -1.54597     1.24399     0.65582
H     -0.80537     1.85723     0.52422
H     -1.16957    -1.61315     1.75019
O     -1.71316    -2.18856     1.18771
H     -2.55832    -1.74250     1.12002
H     -0.27057    -0.28526     3.64083
O     -0.33168    -0.31139     2.68692
H      0.55843    -0.05013     2.33229
H      1.44053     0.31546    -1.82702
O      0.94297     1.06537    -2.18933
H      0.03884     0.73334    -2.30172
H     -2.48969     0.38204    -2.23001
O     -1.68574     0.11613    -1.78764
H     -1.71538     0.49082    -0.87640
