 27
-688.4269423673354
H     -0.64358    -1.64838    -1.54601
O      0.30754    -1.69714    -1.70916
H      0.56893    -0.82353    -2.03424
H      1.84857     0.89658    -1.19954
O      1.23717     0.95514    -1.97613
H      1.67685     1.46195    -2.65776
H      1.02696    -0.91627     1.72646
O      0.64490    -0.08767     2.05353
H     -0.31091    -0.19557     1.94443
H     -3.20402    -1.80589    -1.41408
O     -2.40429    -1.40331    -1.08027
H     -2.52620    -1.25134    -0.12972
H      2.76536    -0.39882     0.27303
O      2.65786     0.56285     0.25420
H      2.02442     0.71523     0.97388
H     -0.88844     2.65697     0.87381
O     -0.82048     2.60710     1.83148
H     -0.10797     1.97549     1.98706
H     -0.45028     1.21494    -1.32728
O     -1.36124     1.20938    -0.99699
H     -1.78527     0.45495    -1.42514
H      1.23451    -2.04832    -0.31902
O      1.80409    -2.09206     0.48788
H      2.11971    -2.98915     0.58025
H     -1.85668     0.60619     0.66483
O     -2.13266    -0.03293     1.35346
H     -2.46999     0.51311     2.06774
