 18
-458.9390977086391
H      2.08363    -0.14032    -0.63627
O      2.62184     0.49391    -0.11903
H      3.44127     0.04283     0.08194
H     -0.52372     1.97039     0.46486
O     -1.32113     1.89845    -0.10054
H     -1.07221     2.30427    -0.93113
H     -0.75032    -2.89080     0.75120
O     -0.83053    -2.49345    -0.11567
H     -1.52741    -1.80955    -0.03410
H      1.61166     1.52093     0.84430
O      0.96070     2.04403     1.35676
H      1.06436     1.77255     2.26856
H      0.46438    -1.76338    -1.00849
O      1.14530    -1.29705    -1.53709
H      0.72064    -1.10474    -2.37330
H     -3.34748    -0.31508     0.72158
O     -2.62491    -0.47844     0.11612
H     -2.15061     0.37379     0.02495
