  9
-229.458774565923
H      1.46946    -1.67492    -0.18473
O      0.92588    -1.03802    -0.64909
H      0.03596    -1.11402    -0.26241
H     -1.11279     0.55347     0.41505
O     -1.53534    -0.32004     0.48354
H     -2.33751    -0.25522    -0.03604
H      0.96949     2.09724     0.46837
O      0.35271     1.65759    -0.11693
H      0.81925     0.87392    -0.45433
