 27
-688.4420019364811
H      2.12020    -3.61106    -0.83328
O      1.64492    -3.20961    -0.10651
H      0.80059    -2.86628    -0.47811
H     -1.02911    -1.45099    -0.17570
O     -0.52126    -1.83811    -0.90553
H     -0.55431    -1.18150    -1.61561
H      3.03335    -0.79499     1.37579
O      2.13536    -0.81607     1.04060
H      1.98002    -1.72266     0.69493
H      0.36473     3.63338     0.68930
O      0.05712     2.72930     0.64284
H      0.65378     2.23873     0.02241
H     -2.32805     0.77173     0.02106
O     -2.18867     1.52292    -0.57584
H     -1.59121     2.11659    -0.09702
H     -2.60930    -1.09620     1.75532
O     -1.99489    -0.61894     1.19915
H     -1.29971    -0.22946     1.78891
H      0.04685     1.43771     1.97880
O      0.05411     0.56670     2.40398
H      0.82261     0.09924     2.04227
H      1.69980     0.34491    -0.34981
O      1.45747     1.08831    -0.92409
H      0.86129     0.74697    -1.60701
H     -1.08108     0.53522    -3.41870
O     -0.76089     0.41134    -2.52642
H     -1.37450     0.89276    -1.91504
