 27
-688.4394910038093
H      1.11490     0.76367    -0.24000
O      1.32415     0.77961    -1.18905
H      0.92425    -0.02445    -1.55452
H      1.62225    -2.12815     0.70449
O      0.83503    -2.62829     0.42609
H      0.59809    -2.29549    -0.45275
H     -0.56692    -1.77540    -2.68848
O     -0.27267    -1.39492    -1.86241
H     -1.07280    -1.03523    -1.40397
H      0.55313     2.18781    -1.79189
O     -0.03455     2.96865    -1.92896
H      0.53520     3.70480    -2.15033
H      2.01769    -0.15386     1.59312
O      2.70531    -0.78409     1.32774
H      3.17743    -0.34103     0.61901
H     -0.20108    -0.03523     1.74051
O      0.33141     0.73039     1.46624
H     -0.30433     1.39756     1.16690
H     -1.31653    -2.03151     2.75287
O     -1.11236    -1.61256     1.91805
H     -0.42747    -2.16095     1.45535
H     -2.17932     2.94048     0.46336
O     -1.58258     2.26937     0.13277
H     -1.10473     2.64010    -0.64478
H     -2.09052     0.53674    -0.20091
O     -2.22780    -0.41132    -0.34704
H     -2.07625    -0.83939     0.50850
