 27
-688.4316327907424
H      1.56535    -2.33824    -0.14677
O      1.92501    -1.69389     0.48807
H      1.20836    -1.52794     1.11339
H     -0.09960    -2.51836    -1.48303
O      0.62066    -3.17463    -1.42727
H      0.80333    -3.46679    -2.31978
H      0.37218     0.45320     1.80159
O     -0.29879    -0.21459     1.56812
H     -1.09936     0.30612     1.41964
H     -1.16008     1.97248    -0.22834
O     -1.86514     2.00963     0.46723
H     -1.64685     2.74553     1.03883
H      3.26325     0.78542    -0.95818
O      2.44515     0.73989    -0.46333
H      2.31525    -0.20452    -0.18759
H      2.00555     1.60746     1.08211
O      1.55786     1.80151     1.92185
H      2.23398     1.81375     2.60067
H     -2.04940    -0.88156    -0.94862
O     -1.10564    -1.09710    -1.03067
H     -0.72515    -0.96468    -0.14540
H     -0.40477     0.70912    -1.69769
O     -0.05235     1.57406    -1.44143
H      0.85212     1.40302    -1.14036
H     -3.12281     0.83744    -0.09376
O     -3.55378     0.04348    -0.45565
H     -4.25951    -0.19010     0.14669
