 21
-535.4349960104054
H     -1.37075     2.20900     1.32710
O     -2.29015     1.88757     1.47103
H     -2.85367     2.64804     1.32879
H      0.71377     2.02475     0.72198
O      0.20868     2.80998     1.03533
H      0.75009     3.21947     1.70955
H     -0.28108    -2.34508     1.33141
O     -0.30527    -1.82081     0.53025
H     -1.20021    -1.40787     0.48899
H     -3.17274    -0.42328    -0.36798
O     -2.68215    -0.58134     0.43949
H     -2.55417     0.30504     0.84684
H      3.61083    -0.80055    -1.95501
O      2.72118    -0.44622    -1.92434
H      2.11894    -1.21401    -2.00414
H      1.96372     0.30882    -0.46893
O      1.43293     0.50150     0.32241
H      0.89088    -0.28733     0.45382
H      0.18503    -2.47363    -2.53234
O      0.87770    -2.44914    -1.87094
H      0.43516    -2.26569    -1.02144
