 27
-688.4342905001183
H      2.39632    -0.56415     0.58667
O      2.81773    -0.03757     1.28752
H      2.89405    -0.60529     2.05370
H     -0.95453    -2.81026    -2.67476
O     -0.92345    -2.15457    -1.97895
H     -1.40757    -2.51502    -1.20207
H      2.06404     1.61149     1.10517
O      1.45238     2.33757     0.90204
H      1.19496     2.19929    -0.01991
H      0.19882     2.14255     2.04806
O     -0.55231     1.83965     2.61547
H     -1.13438     2.59322     2.71168
H      1.34512    -0.06397    -1.24355
O      1.29478    -0.91728    -0.78399
H      0.66139    -1.45936    -1.27747
H     -0.83308     0.36309     1.68592
O     -0.90373    -0.35986     1.03129
H     -0.01204    -0.54470     0.69753
H     -2.97983    -2.83471     0.69906
O     -2.09859    -2.67713     0.36101
H     -1.77583    -1.84453     0.76606
H     -0.23250     1.36531    -1.79654
O      0.71502     1.65240    -1.76202
H      0.89147     2.18996    -2.53409
H     -1.68561     0.37140    -0.61078
O     -1.68529     0.50803    -1.57306
H     -1.52573    -0.37746    -1.93282
