 27
-688.4368262385676
H      1.71335    -1.62844    -1.82327
O      2.58177    -1.69187    -1.40996
H      2.38139    -2.04309    -0.53818
H     -1.03391    -0.92324    -1.46499
O     -0.23764    -1.30625    -1.91805
H     -0.57220    -1.85385    -2.62984
H      0.51013     1.51201     1.79107
O     -0.40537     1.68904     2.05156
H     -0.82097     2.08329     1.27025
H     -0.58407     2.09314    -0.99333
O     -1.39341     2.35156    -0.48561
H     -1.74326     3.15284    -0.87358
H     -1.99407    -0.93741     3.02297
O     -1.54664    -0.70909     2.20914
H     -1.16869     0.20253     2.31110
H      2.88485     0.56291     0.95953
O      1.92871     0.61456     0.92210
H      1.58736    -0.30500     0.90147
H      0.20571    -1.83245    -0.11052
O      0.60751    -1.77190     0.76650
H     -0.12191    -1.59766     1.38061
H      1.34972     1.17758    -0.78151
O      0.81278     1.33888    -1.57382
H      0.66342     0.46824    -1.96378
H     -2.17113     0.64641    -0.45063
O     -2.24031    -0.32126    -0.47127
H     -2.14336    -0.59994     0.45222
