 27
-688.4421319922537
H      1.63105    -0.95289    -2.73620
O      1.27755    -0.68719    -1.88712
H      0.47075    -1.24746    -1.72984
H     -1.61100    -1.68792    -1.23891
O     -0.79193    -2.21555    -1.21627
H     -0.61054    -2.32724    -0.27104
H      0.07650     1.12930     1.80878
O     -0.82281     0.76581     1.77828
H     -1.26461     1.24257     1.06165
H     -0.66641     2.10881    -0.88510
O     -1.61815     2.05397    -0.60647
H     -2.02721     2.88438    -0.84657
H     -0.53271    -2.32759     2.32638
O     -0.28140    -1.86095     1.53146
H     -0.56549    -0.92293     1.63898
H      2.20801     0.48412     1.31298
O      1.90607     1.40875     1.50410
H      2.56206     1.82388     2.06209
H      2.14749    -0.99753    -0.24646
O      2.30464    -1.08973     0.70646
H      1.53108    -1.56958     1.04097
H      1.37775     1.98655    -0.17947
O      0.98770     2.00075    -1.06665
H      1.16918     1.12153    -1.43819
H     -3.21099    -0.51482     0.06071
O     -2.83741    -0.42989    -0.81729
H     -2.42775     0.45042    -0.83616
