 27
-688.4300612804265
H      2.13866    -1.06588    -0.06117
O      2.33263    -0.40552    -0.73972
H      1.76988    -0.64948    -1.48768
H      0.20354    -2.18138    -1.94522
O      0.32916    -1.36818    -2.47801
H      0.37897    -1.62308    -3.39899
H      0.28916     0.81064     1.62326
O     -0.18867     0.11012     2.09716
H     -1.11482     0.25810     1.85394
H      0.21352     1.61920    -0.68259
O      0.89362     1.80253     0.00175
H      1.59952     1.15222    -0.19237
H      0.67546    -1.27337     1.70332
O      1.25648    -2.00809     1.37696
H      1.78692    -2.29844     2.11911
H     -0.20532     2.98767     0.78847
O     -1.03071     3.37801     1.13806
H     -1.14861     4.20800     0.67567
H      0.52157    -2.96416     0.07526
O      0.16623    -3.40818    -0.71915
H      0.54844    -4.28588    -0.73923
H     -0.79401     0.02733    -1.86945
O     -1.16689     0.85299    -1.52765
H     -1.76517     0.62095    -0.80873
H     -2.17095     2.01686     1.10523
O     -2.61198     1.14371     1.07113
H     -3.42358     1.22388     1.57268
