 27
-688.4282239624237
H      3.92100    -2.22423    -0.15043
O      3.21764    -2.11747     0.49085
H      2.44259    -2.60151     0.14215
H      0.15623    -2.50555    -0.48860
O      0.83795    -3.19841    -0.41158
H      0.44998    -3.88514     0.13352
H      0.07589    -0.05759     2.12636
O     -0.87358    -0.24450     2.15106
H     -1.31885     0.60600     2.01751
H     -0.95405     2.40140     0.69765
O     -1.81632     2.20251     1.13902
H     -2.11407     3.00736     1.56168
H     -0.19837     0.06065    -1.94460
O     -0.12917     0.91277    -2.40346
H      0.39590     0.76044    -3.18856
H      0.95252    -0.32600     0.18299
O      1.58408     0.03791     0.82025
H      2.29898    -0.61895     0.84796
H     -1.66422    -0.58979    -0.73846
O     -0.86017    -1.03474    -0.39236
H     -0.92342    -0.92257     0.59113
H      1.09951     1.78569     0.31864
O      0.52033     2.43915    -0.10328
H      0.38526     2.11295    -1.00319
H     -2.22713     1.27905    -1.73857
O     -2.74333     0.79182    -1.08858
H     -2.66044     1.31335    -0.27454
