 27
-688.4320555179403
H      2.08835     0.82373    -0.28077
O      1.31430     1.03919    -0.81963
H      0.65543     1.37644    -0.19230
H      2.26635    -1.39554     0.63295
O      1.62375    -2.09688     0.43725
H      1.37986    -1.97917    -0.48901
H     -0.73313    -1.14277    -0.71508
O     -0.25952    -1.03749    -1.54625
H      0.33329    -0.26200    -1.40446
H     -1.58344     1.53591     0.12536
O     -0.96552     1.35289     0.85656
H     -1.15696     0.44559     1.13290
H      2.31680     0.49038     1.91594
O      2.97930     0.20919     1.24182
H      3.84990     0.42375     1.57575
H      0.37775    -0.03462     2.80059
O      0.87338     0.79466     2.80410
H      0.30285     1.37811     2.28230
H     -1.17857    -2.03557     1.97775
O     -0.63138    -1.33199     1.62996
H      0.19808    -1.73282     1.27414
H     -1.51826    -0.65517    -2.81223
O     -2.31296    -0.28756    -3.24569
H     -2.89751    -1.02786    -3.41091
H     -2.56569     2.47526    -1.79956
O     -2.58636     1.64166    -1.32644
H     -2.55286     0.94873    -2.01598
