  9
-229.4587818422844
H      1.45323    -1.55330    -0.88263
O      1.18329    -1.08032    -0.09522
H      0.22358    -1.21770    -0.01900
H     -1.17206     0.40841     0.08598
O     -1.55573    -0.48541     0.05306
H     -2.22714    -0.45739    -0.62891
H      0.92324     0.80824     0.02050
O      0.33788     1.58086     0.10320
H      0.61388     2.02578     0.90536
