 30
-764.9291255343878
H     -3.11660    -0.68010     1.53212
O     -2.20252    -0.41780     1.42822
H     -2.11862     0.00287     0.53951
H      0.52704     2.98367    -0.80808
O      0.89874     3.28226     0.04094
H      0.24870     3.85772     0.44418
H     -0.83840    -1.83848     1.25890
O     -0.29723    -2.50618     0.81609
H      0.63688    -2.31668     1.02858
H      0.80236    -0.89071    -1.77993
O      1.42512    -0.15394    -1.66913
H      1.47717     0.03211    -0.71299
H      2.82205    -1.97706     0.21420
O      2.38387    -1.85468     1.05946
H      2.31051    -0.88908     1.15726
H     -0.44411     0.83177     3.88147
O     -0.20970     0.33946     3.09522
H     -1.03109     0.13427     2.61312
H      0.25609     2.42270    -3.20502
O      0.12106     2.06010    -2.33000
H      0.70667     1.26487    -2.24347
H     -0.88073    -2.73208    -2.32073
O     -0.67344    -1.99597    -1.74664
H     -0.55959    -2.34502    -0.82337
H      0.92930     0.59568     1.78155
O      1.52114     0.73427     1.01956
H      1.44503     1.67147     0.76804
O     -1.86818     0.46268    -1.07856
H     -1.53949    -0.36327    -1.46940
H     -1.28931     1.15258    -1.42776
