 27
-688.4330272061816
H      1.71110    -2.30162    -2.38117
O      1.33431    -1.61181    -1.83554
H      0.57775    -1.98933    -1.34532
H     -1.51656    -2.96737    -0.46594
O     -0.97392    -2.17842    -0.49730
H     -1.53739    -1.44853    -0.82471
H      2.56406     0.83242    -0.22827
O      2.85528    -0.05267     0.00155
H      2.41975    -0.62997    -0.63929
H      0.48068     1.76164    -0.55608
O      0.61140     2.18740     0.32220
H      0.84830     3.10182     0.16827
H      2.12327     0.01698     1.73458
O      1.47420     0.38744     2.35369
H      1.16050     1.16775     1.87657
H     -1.21691     1.78970     0.96927
O     -2.02729     1.26331     1.04124
H     -1.77506     0.49367     1.59905
H     -0.03541    -0.57890     2.41120
O     -0.91926    -0.94313     2.20064
H     -0.78309    -1.50276     1.42678
H      0.71461     0.11280    -2.12418
O      0.20223     0.92717    -2.02523
H     -0.72202     0.63875    -1.97833
H     -2.37809     0.56294    -0.41818
O     -2.37122     0.04649    -1.27452
H     -3.22606     0.16172    -1.68765
