 18
-458.93515509673784
H      1.45195    -0.21931    -1.05154
O      0.98407    -0.75831    -1.71261
H      1.61379    -1.38064    -2.07688
H      1.03289     1.12055     0.69430
O      1.89111     0.85727     0.30722
H      2.50001     1.58851     0.41541
H     -0.56970    -1.24290    -0.78233
O     -1.35546    -1.09238    -0.23138
H     -1.88126    -0.50064    -0.79029
H     -1.02617     0.33000     0.83501
O     -0.69119     1.14907     1.25254
H     -0.66213     0.94516     2.19187
H     -0.14046    -1.70359     1.48708
O      0.53853    -1.50145     2.14105
H      1.24794    -1.11018     1.62446
H     -0.70864     0.86316    -2.09116
O     -1.55308     1.19947    -1.77173
H     -1.31127     1.72084    -0.99892
