 18
-458.9420137655941
H      1.95843    -0.92795    -0.96666
O      1.52400    -0.31008    -1.56042
H      0.66063    -0.73051    -1.77355
H     -0.87165     1.65386     0.42073
O     -1.77705     1.43627     0.69465
H     -2.04587     2.10557     1.32336
H     -1.70601    -0.94466    -2.11820
O     -0.93352    -1.40985    -1.79580
H     -1.05791    -1.47092    -0.81750
H      1.13509     1.08275    -0.71559
O      0.91183     1.78262    -0.04874
H      1.39302     2.56863    -0.30449
H      1.67771    -0.24615     2.58519
O      1.38084    -0.38379     1.68591
H      1.28495     0.49327     1.28344
H     -1.56198    -0.38511     0.93484
O     -1.15373    -1.26259     0.87393
H     -0.27293    -1.14291     1.25534
