 18
-458.94185530261245
H      2.34887     1.14149    -1.47937
O      1.71461     0.51753    -1.13027
H      1.44948     0.83304    -0.24892
H      0.20211    -1.75732     1.16212
O     -0.00469    -1.30537     2.01585
H     -0.86404    -1.63572     2.27953
H     -1.38689     0.41378    -1.15128
O     -0.92759    -0.25943    -1.67487
H     -0.04457     0.11111    -1.80664
H     -0.20631    -1.69553    -0.90491
O      0.48708    -2.22428    -0.45706
H      1.30386    -1.82885    -0.77651
H      1.15834     1.58803     2.07429
O      0.68588     1.17713     1.35090
H      0.40407     0.28059     1.66307
H     -1.82915     2.71775    -0.23860
O     -1.70984     1.80402     0.01901
H     -0.88118     1.76415     0.52157
