 18
-458.94041127561826
H      2.14805    -1.41369    -1.39512
O      1.64071    -1.01464    -0.68975
H      1.12286    -0.27721    -1.09916
H      0.18378    -1.42169     0.80819
O     -0.15582    -1.00026     1.60738
H      0.64271    -0.59045     1.97646
H     -2.32742     0.25450    -0.81988
O     -2.35666    -0.09704    -1.72653
H     -3.23490     0.07291    -2.06582
H     -1.12312     0.27773     1.09883
O     -1.63998     1.01588     0.68941
H     -2.14715     1.41543     1.39462
H      3.23479    -0.07505     2.06578
O      2.35627     0.09488     1.72719
H      2.32643    -0.25456     0.81969
H     -0.18554     1.42153    -0.80883
O      0.15482     1.00021    -1.60779
H     -0.64301     0.58893    -1.97674
