 18
-458.9362455954661
H      2.81822    -2.13398     0.31006
O      2.14421    -1.45446     0.33110
H      2.54875    -0.64576    -0.03568
H     -2.62117    -0.28176     0.73251
O     -2.45350    -1.23669     0.60669
H     -2.56764    -1.64720     1.46423
H      0.47988    -1.47549    -0.63296
O     -0.27130    -1.02885    -1.04718
H     -1.05664    -1.28748    -0.53541
H      0.58369     0.84795     0.96015
O      0.23011     1.27972     0.17610
H      0.00908     0.51504    -0.41596
H      2.83502     0.85675    -1.80731
O      2.88935     0.95171    -0.85427
H      2.05673     1.38690    -0.60874
H     -1.65321     1.66197     0.61416
O     -2.59488     1.50477     0.79837
H     -3.06796     1.98798     0.11880
