  9
-229.45877985782218
H      1.68491    -1.38612    -0.01067
O      1.22005    -0.74603     0.52858
H      0.27442    -0.94757     0.42441
H     -1.15626     0.50995    -0.23114
O     -1.49162    -0.39491    -0.10430
H     -1.99045    -0.60336    -0.89448
H      0.88037     1.07690     0.06956
O      0.26579     1.78717    -0.18360
H      0.31485     2.42986     0.52507
