 18
-458.9437408724462
H      1.97905    -0.43600    -0.21293
O      2.62514     0.23071     0.07716
H      3.39052     0.12810    -0.48957
H     -0.21148     1.62083    -0.76689
O     -0.81270     0.92394    -1.08324
H     -0.24286     0.15378    -1.20588
H     -0.75622    -2.05066     2.07234
O     -1.04766    -2.16717     1.16703
H     -1.72509    -1.46922     1.02567
H      1.76479     1.77756     0.08981
O      1.14944     2.53027    -0.01427
H      1.12539     2.97522     0.83375
H      0.07725    -1.85454    -0.06830
O      0.67395    -1.53510    -0.78864
H      0.66137    -2.20025    -1.47628
H     -3.53200     0.07388     0.30348
O     -2.64796    -0.04328     0.65105
H     -2.03858     0.41532     0.02510
