 15
-382.4438045943452
H      0.45303     0.98982     1.17512
O     -0.39080     0.66003     1.52558
H     -0.26887    -0.29751     1.51795
H     -0.43471    -0.12229    -1.53742
O      0.39143    -0.63329    -1.53641
H      0.23462    -1.29678    -0.85304
H     -2.03265     1.80647    -0.97995
O     -1.80265     0.89798    -0.78248
H     -1.42189     0.90564     0.12368
H      1.45127     0.49782    -0.70825
O      1.84575     1.12212    -0.05956
H      2.11194     1.89234    -0.56269
H     -0.80766    -2.74535     0.99197
O     -0.04656    -2.16985     0.90461
H      0.69189    -2.66396     1.26332
