 27
-688.4298883382206
H      0.90622     1.58715     2.28338
O      1.59760     0.89985     2.16144
H      2.14985     0.91609     2.94375
H     -1.46194    -3.21403    -1.19006
O     -2.25211    -2.78946    -1.58810
H     -3.01394    -3.26324    -1.25166
H     -1.78583     1.36044    -0.00577
O     -1.51893     2.27750     0.15586
H     -0.85119     2.41946    -0.52805
H     -0.83021     2.67623     1.70127
O     -0.25813     2.84450     2.48405
H     -0.02496     3.77199     2.44257
H      2.34524     0.98047     0.38306
O      2.46279     0.65072    -0.51873
H      1.79376     1.10447    -1.05087
H      1.09060    -0.82410     1.38318
O      1.03897    -1.35511     0.57296
H      1.65327    -0.86736    -0.02035
H      0.71114    -4.15739    -0.88596
O      0.01688    -3.71374    -0.39671
H      0.43161    -2.92895     0.01193
H     -0.34983     0.76530    -1.76228
O      0.21677     1.53897    -1.97093
H      0.18832     1.66921    -2.91894
H     -0.63927    -0.76860    -0.21582
O     -1.30295    -0.37098    -0.80429
H     -1.79547    -1.12458    -1.18248
