 27
-688.4291436504054
H      1.15198    -2.91733    -0.19338
O      2.08493    -2.97242     0.06539
H      2.10519    -3.51155     0.85617
H     -0.41286    -1.31608    -2.47234
O     -0.19045    -0.87229    -3.31058
H      0.41795    -1.46164    -3.75749
H      0.06372     1.24207     2.49492
O      0.36266     0.32024     2.42308
H     -0.45001    -0.16566     2.22960
H     -0.71433     1.63620    -0.97827
O     -1.54472     1.76761    -0.43812
H     -2.20690     2.09215    -1.04930
H      1.36595     0.05119     1.01756
O      1.74866    -0.19023     0.14473
H      2.21719    -1.03195     0.24400
H     -1.09696     2.55862     1.14384
O     -0.84877     2.77627     2.05851
H     -0.43104     3.63813     2.03263
H     -1.06868    -1.49215    -0.04973
O     -0.37448    -1.73112    -0.67594
H      0.35166    -1.10086    -0.49536
H      1.25707     0.95009    -1.29116
O      0.61582     1.36604    -1.89109
H      0.39195     0.68300    -2.54789
H     -2.02950     0.38202     0.64323
O     -2.07788    -0.44364     1.16202
H     -2.95304    -0.49756     1.54266
