  9
-229.4496480242652
H      0.68304    -3.25301    -0.54723
O      0.96581    -2.45455    -0.10070
H      0.29802    -1.78424    -0.30238
H     -0.61996     0.82760     0.01369
O     -0.50309    -0.11788     0.17950
H      0.11569    -0.18628     0.91052
H      0.13495     3.10633    -0.31817
O     -0.71554     2.70005    -0.14098
H     -1.03701     3.12673     0.65548
