  9
-229.44152543673408
H      4.26558    -1.35326     0.12632
O      3.47110    -1.76359    -0.21805
H      3.75730    -2.60807    -0.56889
H     -2.87405     1.56850     0.01148
O     -3.23706     0.68005     0.07059
H     -4.16543     0.79218     0.27965
H     -1.24067     0.41958     0.06483
O     -0.51615     1.05620     0.02928
H      0.28501     0.53160    -0.03512
