  9
-229.458780078318
H      1.26193    -0.12755    -0.15304
O      1.22966    -1.09843    -0.19539
H      1.84402    -1.41025     0.46928
H     -0.67353    -1.04217    -0.05201
O     -1.50502    -0.54292     0.02281
H     -1.99780    -0.75125    -0.77179
H     -0.49657     1.07492     0.12531
O      0.35163     1.55214     0.11063
H      0.33544     2.14038     0.86586
