 27
-688.4301762322368
H      2.60546    -1.17351    -1.50061
O      1.77306    -1.24099    -1.97094
H      1.20025    -1.78019    -1.40567
H     -0.57553    -2.59714     0.38227
O      0.27127    -2.67638    -0.11321
H      0.63002    -3.54309     0.08773
H      2.37535     2.58569    -0.12240
O      1.59180     2.03647    -0.10182
H      1.31930     1.85006    -1.03927
H      0.09237     2.63816     0.68075
O     -0.78006     2.86544     1.05287
H     -1.24637     3.35773     0.37656
H      1.49801     0.37950     0.80804
O      1.29439    -0.36996     1.38715
H      1.20800    -1.15752     0.83672
H     -1.32223     1.27277     1.77223
O     -1.31342     0.30118     1.83873
H     -0.36981     0.06427     1.94323
H     -2.90325    -2.33995     0.86516
O     -2.01883    -2.25683     1.22610
H     -1.93538    -1.33425     1.54804
H      1.11685     0.44146    -2.58927
O      0.66205     1.28882    -2.45958
H     -0.20686     1.02757    -2.10503
H     -1.39950     0.27012    -0.04943
O     -1.34425     0.07880    -1.00119
H     -1.05129    -0.83392    -1.07498
