 27
-688.4276526945551
H     -0.47733    -0.15875    -3.72772
O      0.16808     0.07018    -3.05868
H     -0.02592    -0.50068    -2.28837
H      1.81273    -1.73776     1.27919
O      1.16081    -2.47085     1.20088
H      1.62083    -3.28859     1.38510
H     -1.37760    -1.59551    -0.57051
O     -0.46545    -1.40612    -0.85313
H      0.10119    -1.92395    -0.26263
H      0.44970     1.70679    -2.58851
O      0.67549     2.63401    -2.36590
H      1.59393     2.74455    -2.61621
H      3.23598     0.19835     0.78753
O      2.56104    -0.18821     1.34701
H      1.75365     0.35794     1.23991
H     -0.16690     0.36457     0.10918
O      0.09262     0.87311     0.89421
H     -0.08702     1.81556     0.70376
H     -0.68090    -0.31334     2.19501
O     -1.01975    -1.18350     2.45891
H     -0.29309    -1.78284     2.23588
H     -1.18931     3.80879    -0.10419
O     -0.32174     3.42752     0.03493
H      0.03627     3.23173    -0.85735
H     -2.28677    -1.60285     1.34513
O     -2.79458    -1.82648     0.52964
H     -3.60934    -2.24286     0.80998
