 27
-688.4317141904419
H      1.65223    -2.12044     2.40122
O      1.39296    -1.28796     2.00717
H      0.49233    -1.40482     1.64989
H     -0.48932    -1.76986    -2.20890
O      0.14820    -1.91954    -1.49127
H     -0.35578    -1.74684    -0.68476
H      1.50075     2.51775    -1.13949
O      0.92804     1.85080    -0.76305
H      1.47098     1.02030    -0.68516
H     -1.17859    -0.09725     1.00212
O     -1.12269    -1.08035     0.92883
H     -1.97738    -1.43605     1.17244
H     -0.71945     1.35772    -1.57391
O     -1.67173     1.17774    -1.59027
H     -1.95116     1.36664    -0.68839
H      1.16716     0.28216     2.92650
O      0.82639     1.11433     3.29570
H      1.58423     1.68797     3.40770
H     -1.88454    -0.80121    -4.01973
O     -1.92314    -1.07886    -3.10474
H     -1.95168    -0.25586    -2.57676
H      1.62580    -1.02016    -1.06261
O      2.24626    -0.43090    -0.58486
H      2.22408    -0.74432     0.32964
H     -0.50075     1.53833     2.09436
O     -0.96039     1.58332     1.23578
H     -0.28255     1.90638     0.61867
