 21
-535.4418666227841
H      0.23651    -0.66466    -3.27540
O      0.37349    -0.53493    -2.33789
H     -0.12098     0.25814    -2.05974
H     -1.93357     0.46284    -0.12749
O     -2.28183    -0.21014     0.47668
H     -1.94220     0.04281     1.34138
H      0.01565    -1.71386    -0.89123
O     -0.19741    -1.91520     0.03171
H     -1.10543    -1.57370     0.13754
H     -1.05772     2.49339    -1.30463
O     -0.76394     1.61731    -1.05706
H     -0.07430     1.72907    -0.34638
H      1.74506     1.02223     0.42502
O      1.09346     1.63157     0.82211
H      0.73053     1.13552     1.57099
H      1.84463    -1.21182     0.06502
O      2.34899    -0.51210    -0.36541
H      1.94371    -0.47384    -1.24169
H      0.42277    -0.90652     3.12169
O      0.01686    -0.46837     2.37448
H      0.05867    -1.08666     1.62152
