 27
-688.4331736888913
H     -1.17292    -0.05842    -2.90432
O     -0.53356     0.09636    -2.21030
H     -0.32690    -0.79337    -1.81799
H      1.84905    -1.04187     1.09546
O      1.45693    -1.91473     1.28561
H      2.14329    -2.47392     1.64653
H     -1.06608    -2.40394    -0.62814
O     -0.17870    -2.22818    -0.99140
H      0.41227    -2.23636    -0.22569
H      0.86549     1.28363    -2.18135
O      1.58009     1.87498    -1.89095
H      2.04521     1.34894    -1.22869
H      2.24183     1.40809     1.26334
O      1.88396     0.70012     0.72396
H      0.91432     0.84305     0.69008
H     -0.99945     0.85957    -0.47620
O     -0.83963     1.14390     0.43813
H     -0.68427     2.10316     0.39375
H     -1.03903    -0.19879     1.72302
O     -1.07017    -1.04351     2.19892
H     -0.19123    -1.43050     2.09384
H      0.11954     4.40176    -0.47658
O      0.31029     3.51872    -0.15856
H      0.81924     3.05810    -0.86533
H     -2.13035    -1.90739     1.14744
O     -2.54661    -2.36924     0.38329
H     -3.16859    -3.00236     0.74129
