 30
-764.9191474379503
H     -3.69423    -2.00885    -1.49035
O     -3.23635    -1.36672    -0.94946
H     -3.30656    -0.50267    -1.41373
H      2.11594    -1.43738    -0.75272
O      1.43750    -1.52036    -1.45404
H      1.63857    -2.29784    -1.97453
H      2.69094    -2.62577     3.52774
O      2.91032    -1.75592     3.19461
H      2.07041    -1.26970     3.13323
H      0.45311     0.68169     2.24048
O      0.70695    -0.24505     2.29357
H      0.10050    -0.69808     1.67746
H      3.32267    -1.21258     1.38126
O      3.02109    -0.68320     0.62812
H      2.29045    -0.18430     1.02312
H      0.58392     1.76712    -0.23768
O     -0.24172     1.77816     0.28047
H     -0.62447     0.88690     0.18683
H     -1.63423     2.70289    -0.23378
O     -2.51559     3.02035    -0.53077
H     -2.95859     3.35506     0.24894
H     -0.20007    -1.24914    -0.53052
O     -0.81807    -0.96489     0.15724
H     -1.71039    -1.21993    -0.14529
H      2.78057     0.93547    -0.83155
O      2.00036     1.26196    -1.29132
H      1.63881     0.45728    -1.68343
O     -3.30670     1.04323    -2.20856
H     -2.79571     1.22475    -2.99819
H     -3.09866     1.77903    -1.59327
