 27
-688.4324500216758
H     -1.45420    -2.46906     2.52109
O     -1.25816    -1.63429     2.09603
H     -1.80661    -1.57957     1.27025
H     -0.18737    -0.74797    -2.32160
O     -0.28813    -1.67189    -1.97363
H     -0.05462    -2.27480    -2.67847
H      4.06416    -0.24929     0.43727
O      3.35055     0.38801     0.45005
H      2.52382    -0.12257     0.56823
H     -2.21848    -0.18787    -0.24464
O     -2.40478    -1.14185    -0.24402
H     -1.81693    -1.49839    -0.92890
H      2.83960     1.29829    -0.94429
O      2.44917     1.78352    -1.69954
H      2.58887     2.71218    -1.51163
H     -1.42870     0.07761     2.77206
O     -1.57162     1.03478     2.86559
H     -2.40296     1.14223     3.32832
H     -0.61731     1.31848    -1.73670
O     -0.06706     0.93677    -2.43454
H      0.83719     1.24542    -2.23791
H      0.63160    -1.29610    -0.35440
O      0.95246    -0.88170     0.46214
H      0.35843    -1.16220     1.17207
H     -1.35776     1.47489     1.11689
O     -1.09259     1.36397     0.18615
H     -0.19951     0.99394     0.24941
