  9
-229.4502275974755
H      0.42650    -3.32766    -0.64503
O      0.81657    -2.59398    -0.16971
H      0.23982    -1.83493    -0.32998
H     -0.06197     1.01938     0.01457
O      0.07625     0.06348    -0.02294
H      0.92955    -0.10075     0.38695
H     -1.28371     2.97986    -0.58188
O     -0.66829     2.80263     0.13282
H     -1.19092     2.87890     0.93396
