 27
-688.4420124100316
H      0.91993    -0.74616    -1.30500
O      1.70348    -0.18071    -1.21980
H      2.02562    -0.32297    -0.31845
H     -1.36382    -1.22479    -1.23394
O     -0.60096    -1.83551    -1.40064
H     -0.80790    -2.34811    -2.18099
H      0.99531     0.73099     1.56258
O      0.18486     1.25804     1.62345
H      0.00784     1.62522     0.74312
H      0.02233     2.25346    -1.50652
O     -0.71465     2.25128    -0.85656
H     -1.09658     3.13061    -0.86328
H     -2.32672    -0.27605     2.89583
O     -1.84128    -0.41398     2.08374
H     -1.11773     0.26167     2.04577
H      2.85214    -1.14502     1.94167
O      2.09695    -0.80613     1.46321
H      1.38670    -1.49669     1.48979
H     -0.17839    -2.41482     0.30884
O     -0.01558    -2.41033     1.26453
H     -0.76548    -1.92836     1.64404
H      2.22930     2.72038    -2.41330
O      1.44387     2.17765    -2.47612
H      1.68628     1.29094    -2.12418
H     -1.92045     0.80213    -0.73752
O     -2.39340    -0.03637    -0.62230
H     -2.42139    -0.19744     0.33307
