 27
-688.4314452590645
H      1.22668    -2.53507     2.43572
O      1.03750    -1.63711     2.16580
H      0.14396    -1.62439     1.77291
H     -0.60561    -1.66900    -2.22013
O     -0.04304    -1.88615    -1.45808
H     -0.58151    -1.69287    -0.67871
H      1.85014     2.51394    -0.94685
O      1.13354     1.93200    -0.69868
H      1.53572     1.04645    -0.49093
H     -1.17357     0.00856     0.99199
O     -1.30504    -0.97074     0.94997
H     -2.24603    -1.13324     1.00722
H     -0.45655     1.49137    -1.61819
O     -1.40657     1.31602    -1.69002
H     -1.73132     1.46314    -0.79677
H      1.17819     0.03018     2.88103
O      1.03046     0.95332     3.14042
H      1.11795     0.99936     4.09130
H     -1.55849    -0.59224    -4.22360
O     -1.79472    -0.84434    -3.33091
H     -1.76476    -0.02169    -2.80384
H      1.41389    -1.03949    -0.85538
O      2.01814    -0.52804    -0.27909
H      1.91597    -0.90707     0.60315
H     -0.30454     1.53290     2.05144
O     -0.80922     1.64913     1.22708
H     -0.15575     2.03046     0.61797
