 27
-688.4344245248155
H      1.06400     0.15212    -3.77926
O      0.77878     0.09194    -2.86807
H      1.22395     0.81623    -2.36009
H      0.97185    -1.29496    -1.60065
O      1.13037    -1.73842    -0.75322
H      0.25660    -1.89424    -0.36987
H     -2.03954    -0.66249     3.42596
O     -2.58725    -1.31629     2.98715
H     -2.29561    -1.30256     2.06788
H     -0.46469     1.59222     0.99885
O     -0.66869     2.20900     0.25964
H     -1.13598     2.95976     0.62606
H      0.92576     2.19310    -0.70857
O      1.73553     1.89654    -1.14909
H      2.23171     1.41804    -0.46963
H     -0.92487     0.13901    -2.15101
O     -1.64296     0.23789    -1.50767
H     -1.42429     1.04172    -1.01155
H     -2.06355    -2.35563     0.29743
O     -1.46485    -1.61001     0.38946
H     -1.67550    -0.96092    -0.33381
H      2.16407    -0.74194     0.19093
O      2.60879    -0.03631     0.71901
H      3.43179    -0.39599     1.04779
H      1.07683     0.27309     1.74700
O      0.12924     0.29067     1.96238
H     -0.23116    -0.53630     1.61500
