 27
-688.4357590388958
H      1.62705    -1.37917    -0.28982
O      2.43257    -1.02036     0.11401
H      2.71682    -0.35517    -0.52775
H     -2.61758    -2.95842    -2.20454
O     -1.83129    -2.88448    -1.66248
H     -2.13588    -2.72526    -0.74227
H     -1.50882     1.09255     0.87387
O     -1.17699     0.18775     1.03862
H     -0.37757     0.29793     1.57686
H     -0.55792     2.89057     0.36259
O     -1.53198     2.83508     0.50539
H     -1.94351     3.30618    -0.21864
H      1.44535     2.05701    -0.52163
O      1.13178     2.57273     0.23419
H      1.34217     2.03035     1.00810
H      1.89151    -0.14492     1.45655
O      1.44773     0.49033     2.07316
H      1.86337     0.40321     2.92941
H     -2.22000    -2.74389     1.64459
O     -2.48144    -2.21460     0.88979
H     -2.07557    -1.33195     1.01485
H      2.16241     1.13246    -2.77927
O      1.93098     0.87574    -1.88771
H      1.19318     0.23422    -1.94234
H     -0.49606    -0.46835    -0.62831
O      0.01154    -0.92220    -1.32496
H     -0.55058    -1.65821    -1.62979
