 27
-688.4357097580843
H      1.48494    -1.76348    -1.54741
O      2.08606    -0.98372    -1.47563
H      2.59959    -0.95251    -2.28518
H     -0.37944    -2.64261    -0.95014
O      0.18752    -2.83223    -1.74704
H     -0.38688    -2.71949    -2.50523
H      1.02772     0.03855     1.55396
O      0.21209    -0.37647     1.87068
H     -0.40858     0.34515     2.03716
H      0.23682     2.09469    -0.56098
O      0.53638     2.63781     0.19900
H      1.36802     2.21399     0.45849
H      3.36017     0.60087     1.06943
O      2.50006     0.69858     0.66243
H      2.45985     0.09439    -0.10151
H     -0.72689     2.32008     1.23442
O     -1.46133     1.90319     1.76470
H     -1.68047     2.49877     2.48091
H     -1.94178    -1.48150     0.20534
O     -1.23617    -2.12375     0.36578
H     -0.62134    -1.64257     0.95511
H      0.48489     0.04983    -1.53361
O     -0.22780     0.70284    -1.53991
H     -1.02520     0.30373    -1.16319
H     -2.34710     0.84558     0.63493
O     -2.62671     0.23343    -0.06925
H     -3.43828     0.57107    -0.44511
