 27
-688.4263508138533
H      0.54199     0.60847     0.66074
O      0.93814     0.52948    -0.22169
H      0.42790    -0.17812    -0.65458
H      2.24430    -2.26041    -0.10849
O      1.46098    -2.82938    -0.01321
H      0.85079    -2.54092    -0.70637
H     -1.51131    -0.87753    -0.85280
O     -0.87196    -1.61354    -0.96352
H     -1.08482    -2.19913    -0.22927
H      0.70195     2.23166    -1.03204
O      0.46988     3.11407    -1.37179
H      0.99693     3.74375    -0.87824
H      3.87376    -0.62991    -1.06906
O      3.34016    -0.84179    -0.30194
H      2.61294    -0.19195    -0.27733
H     -0.50060    -0.65218     2.20514
O     -0.60515     0.31784     2.11516
H     -0.58719     0.70465     2.98909
H     -0.23901    -3.04514     2.64115
O     -0.24594    -2.35612     1.97667
H      0.49257    -2.54975     1.34888
H     -1.30967     3.16139    -1.29423
O     -2.26556     3.01884    -1.15635
H     -2.68697     3.19231    -1.99854
H     -1.88861     0.56089     0.71876
O     -2.34259     0.47844    -0.12966
H     -2.37348     1.37907    -0.49967
