  9
-229.45877412493138
H      1.36628    -1.80292     0.47437
O      1.16176    -1.10502    -0.14912
H      0.21052    -1.19389    -0.33231
H     -1.23093     0.32789     0.11063
O     -1.56569    -0.49084    -0.29356
H     -2.08335    -0.21641    -1.05065
H      0.63244     2.18904     0.24650
O      0.25393     1.41762     0.66873
H      0.85510     0.67994     0.46441
