 27
-688.437044933652
H     -0.21475    -2.37833     1.21487
O      0.41735    -2.87277     0.67550
H      0.09660    -2.73465    -0.22663
H     -0.96765    -1.01634    -0.37299
O     -0.79515    -1.25497    -1.30587
H     -1.50213    -0.81706    -1.80752
H      3.46100    -1.86060     0.93385
O      2.63814    -1.39571     0.78579
H      1.90724    -2.05982     0.80088
H      1.05026     1.57375    -0.61553
O      0.69444     2.35610    -0.11087
H      1.17396     3.12143    -0.42476
H     -2.37745     2.62354     0.62877
O     -1.97447     1.92190     0.11943
H     -1.02240     2.13026     0.03870
H     -1.66273     0.21595     1.12821
O     -1.08712    -0.52956     1.34204
H     -0.28658    -0.13537     1.75150
H      1.21688     1.40373     1.53369
O      1.22453     0.63102     2.11259
H      1.90595     0.03741     1.76373
H      2.12872    -0.34465    -0.63146
O      1.60559     0.17370    -1.26250
H      0.82094    -0.36778    -1.46675
H     -2.69248     1.10560    -2.92215
O     -2.74738     0.52132    -2.16650
H     -2.57080     1.06641    -1.38216
