 27
-688.4297427007448
H     -1.93131    -0.84025    -2.56378
O     -2.19925    -1.77774    -2.47867
H     -3.10442    -1.81222    -2.78795
H      1.28425    -0.56787    -1.06897
O      1.38969    -1.51779    -0.85118
H      1.73989    -1.96012    -1.62393
H      0.84214    -0.70997     2.16758
O      1.72535    -0.83744     1.80825
H      1.61988    -1.25765     0.94175
H     -0.66400     1.14974    -2.39916
O     -1.58695     0.87623    -2.42268
H     -1.89345     1.04485    -1.52139
H      2.34126     0.75533     1.62088
O      2.34455     1.73256     1.48758
H      3.23208     2.04188     1.66004
H     -0.38245     2.02132     3.51386
O     -0.09065     1.40912     2.83925
H      0.73765     1.75700     2.47118
H      0.05564     1.09067    -0.42781
O      0.89932     1.15613    -0.92615
H      1.51971     1.56078    -0.30441
H     -0.31611    -2.06068    -0.13210
O     -1.24775    -1.94941     0.10319
H     -1.72481    -2.08191    -0.73469
H     -1.18270     1.01174     1.32488
O     -1.40377     0.73316     0.42395
H     -1.45071    -0.24932     0.42361
