 24
-611.9435190196965
H     -1.82926     1.38023     0.78412
O     -1.10930     2.03666     0.75556
H     -0.40924     1.67677     1.31970
H     -0.04393    -1.45070    -1.55002
O     -0.80195    -0.86672    -1.39636
H     -0.52907     0.02006    -1.68172
H      0.47539    -2.29124     0.81786
O     -0.24005    -1.71470     1.10944
H     -0.54223    -1.32813     0.26292
H      1.96608    -1.17836    -0.77825
O      1.64965    -2.08589    -1.00509
H      2.32360    -2.48804    -1.55205
H     -0.44935     2.03312    -0.78467
O      0.03335     1.77859    -1.61653
H     -0.07306     2.48778    -2.24951
H      1.59291     0.99756    -0.95682
O      2.20599     0.46971    -0.42346
H      1.95077     0.64628     0.49307
H     -2.47651    -0.44167    -0.29579
O     -2.77617    -0.15838     0.57855
H     -2.47103    -0.85435     1.16612
H      0.48598    -0.33571     1.88042
O      0.89851     0.53778     2.05755
H      1.19742     0.54218     2.96622
