 27
-688.4320775307709
H      0.84982    -2.57633    -2.13429
O      0.03928    -2.83262    -2.61351
H     -0.05538    -3.77919    -2.50850
H      2.00350    -1.10234    -0.46640
O      2.11689    -1.86705    -1.05839
H      2.79848    -2.41329    -0.66654
H     -1.87523     1.58278     1.47957
O     -1.72425     1.36737     2.43095
H     -2.56859     1.42864     2.87764
H     -1.00951     1.98966    -0.60754
O     -1.86612     1.77379    -0.21866
H     -2.09722     0.94333    -0.66139
H      1.47675     0.88002    -0.24110
O      1.79522     0.36993     0.52134
H      1.67250     0.94428     1.29973
H      0.00314     1.71061     2.65475
O      0.95785     1.89484     2.61379
H      1.05799     2.84097     2.72379
H      0.89645     1.19872    -2.63515
O      0.44231     1.21522    -1.79253
H     -0.15925     0.43650    -1.77516
H     -1.11908    -1.01765    -0.31164
O     -1.28741    -0.80873    -1.25365
H     -1.00979    -1.58390    -1.77524
H      0.33480    -0.68318     1.24393
O     -0.56428    -1.01418     1.38748
H     -0.99207    -0.38121     1.97894
