 27
-688.4414988753133
H      1.70404    -0.77444    -2.72654
O      1.33550    -0.57926    -1.86486
H      0.53918    -1.16290    -1.75671
H     -1.53813    -1.64194    -1.18890
O     -0.72423    -2.17145    -1.29591
H     -0.49374    -2.42803    -0.39163
H     -0.10585     0.94287     1.72259
O     -0.98474     0.59915     1.49589
H     -1.31759     1.19648     0.80753
H     -0.72378     2.15698    -0.96479
O     -1.69464     2.07534    -0.78446
H     -2.08255     2.93737    -0.93152
H     -0.47937    -2.48137     2.23725
O     -0.18684    -2.00883     1.45969
H     -0.57967    -1.11087     1.49036
H      2.11161     0.48381     1.40381
O      1.71612     1.35920     1.65219
H      2.29123     1.77120     2.29440
H      2.20139    -0.91183    -0.23831
O      2.35263    -1.03409     0.71218
H      1.61203    -1.58086     1.01509
H      1.25660     2.02809    -0.02070
O      0.95364     2.06698    -0.94003
H      1.15283     1.18945    -1.30733
H     -2.65252    -0.43706     0.37960
O     -2.77412    -0.50608    -0.57143
H     -2.57454     0.38636    -0.88627
