 27
-688.4374174980553
H      0.76486     0.74175     0.47485
O      1.23066     0.69529    -0.39461
H      0.78380     0.03942    -0.95656
H      1.74245    -2.25936     0.31220
O      0.86354    -2.66266     0.19654
H      0.56710    -2.37513    -0.67916
H     -0.30329    -1.21965    -2.88590
O     -0.21664    -1.21143    -1.93328
H     -1.08610    -0.94004    -1.54869
H      0.94904     2.33283    -0.98247
O      0.48428     3.18149    -1.13888
H      1.07513     3.87240    -0.83930
H      3.54802    -0.79778     1.23104
O      3.11449    -1.07012     0.42231
H      2.60196    -0.29513     0.11821
H     -0.56416     0.05813     2.05570
O     -0.19911     0.94034     1.89004
H     -0.91737     1.46483     1.51385
H     -1.42858    -2.33287     2.32529
O     -1.07042    -1.68078     1.72474
H     -0.31560    -2.10480     1.23701
H     -1.02632     2.69861    -0.42980
O     -1.78768     2.31210     0.05700
H     -2.45599     2.99174     0.14322
H     -2.20738     0.55183    -0.30174
O     -2.28891    -0.40103    -0.45846
H     -2.03825    -0.83683     0.37083
