 27
-688.4288134946943
H      1.15387    -2.85301    -0.36915
O      2.03388    -2.59900    -0.67137
H      1.88260    -2.36007    -1.59179
H     -0.29170    -1.66419    -1.87916
O      0.14219    -1.55386    -2.75165
H     -0.49660    -1.80511    -3.41986
H      0.47856     1.10647     2.80211
O      1.30355     0.69885     3.12132
H      1.80422     1.38885     3.55615
H     -0.61063     1.68116    -1.24183
O     -1.39330     2.06510    -0.75636
H     -1.71625     2.78883    -1.29144
H      1.69674     0.05856     1.48252
O      1.61731    -0.13814     0.53281
H      2.07565    -0.96911     0.32215
H     -0.95957     1.95156     0.95427
O     -0.94384     1.81957     1.92171
H     -1.32957     2.60734     2.30660
H     -1.49901    -1.17451     0.08447
O     -0.64544    -1.57808    -0.16347
H      0.04734    -0.98767     0.19327
H      1.23769     0.75453    -1.01891
O      0.78327     1.03638    -1.83219
H      0.66588     0.22797    -2.35425
H     -2.60038     0.69853    -0.07402
O     -2.78306     0.00420     0.57381
H     -2.39255     0.36617     1.37774
