  9
-229.4587895596374
H      1.50654    -1.50047    -0.16772
O      0.77364    -1.09637    -0.63254
H      0.89121    -0.13643    -0.53053
H     -1.01830    -0.94356     0.01271
O     -1.75561    -0.40456     0.34772
H     -2.46000    -0.51235    -0.29239
H     -0.62559     1.13690     0.29363
O      0.22521     1.56085     0.08459
H      0.46328     2.06902     0.86032
