  9
-229.4511917888596
H      0.03003     1.03323     0.18549
O     -0.80684     0.55095     0.26639
H     -0.99821     0.52872     1.20625
H     -1.60058    -2.49905    -0.31965
O     -0.80443    -2.21248     0.12912
H     -0.78498    -1.24535     0.04893
H      2.38431     1.09931    -0.06483
O      1.73844     1.80809    -0.11286
H      1.83706     2.16568    -0.99765
