  9
-229.4587738676863
H      0.19953    -1.29189     0.07273
O      1.16783    -1.20041     0.05785
H      1.45551    -1.67440    -0.72333
H     -2.17125    -0.47436     0.74603
O     -1.54685    -0.51872     0.02178
H     -1.15279     0.36780    -0.04466
H      0.73713     2.07864     0.66630
O      0.40679     1.49568    -0.01744
H      0.96571     0.69963     0.01711
