  9
-229.4587763666387
H      0.16368    -1.22796    -0.12916
O      1.12132    -1.12272    -0.26749
H      1.54287    -1.75190     0.31831
H     -1.17731     0.39926     0.21800
O     -1.57395    -0.48793     0.17402
H     -2.21020    -0.44626    -0.54089
H      0.76666     1.99708     0.81989
O      0.34405     1.54643     0.08863
H      0.90593     0.77798    -0.11030
