 27
-688.441132925784
H      0.73237    -2.56705     0.20471
O      1.61788    -2.39186     0.54346
H      1.44943    -2.01934     1.42210
H     -0.72033    -1.41266     1.15232
O     -1.10548    -1.48931     0.26575
H     -1.77796    -0.79257     0.22641
H      3.39155    -0.48533    -1.29512
O      2.46626    -0.41274    -1.06451
H      2.26254    -1.15016    -0.44101
H     -0.80315     0.80289    -2.25373
O     -1.19099     1.68881    -2.02350
H     -1.32367     2.16668    -2.84099
H      0.15245     1.65845     1.23466
O     -0.46986     1.37861     1.93694
H     -1.31552     1.25408     1.48355
H      0.19338    -1.22597     3.54669
O      0.37394    -1.03465     2.62678
H      0.13007    -0.08309     2.47545
H      0.38677     2.06033    -0.95249
O      1.06608     1.93326    -0.27846
H      1.62869     1.21165    -0.59406
H      0.91870    -0.58756    -2.08862
O     -0.03493    -0.68584    -2.23049
H     -0.37127    -1.10413    -1.41852
H     -2.23101     1.31222    -0.63752
O     -2.59798     0.89543     0.16548
H     -3.54232     1.04401     0.17793
