  9
-229.4512077013065
H      1.21605    -2.68918     0.75661
O      0.90553    -2.40596    -0.10602
H      1.68811    -2.06217    -0.54327
H     -1.33960    -0.07540    -0.71230
O     -0.87346    -0.17400     0.12038
H     -0.33499    -0.97385     0.02047
H     -0.11809     2.92072     0.43478
O      0.32258     2.30623    -0.15327
H     -0.03727     1.42985     0.05734
