 27
-688.4399305989359
H      2.90035    -1.28275    -1.04078
O      2.10639    -0.76217    -0.92584
H      1.33097    -1.36207    -1.10545
H     -0.61943    -2.17207    -0.52406
O     -0.15112    -2.06208    -1.37389
H     -0.66303    -1.40816    -1.87118
H      1.11575     1.32279     1.30534
O      1.17228     0.37083     1.47982
H      1.62925    -0.01841     0.71623
H      0.79974     3.73455     0.33926
O      0.54771     2.81366     0.30635
H      0.74542     2.48199    -0.60663
H     -0.74660     0.36686     0.87529
O     -1.47278     0.88029     0.48866
H     -1.11326     1.77933     0.48374
H     -2.09841    -1.18709     0.96852
O     -1.56285    -1.98454     0.99011
H     -1.08649    -1.93912     1.83616
H     -0.24683    -1.01611     4.03040
O     -0.01987    -1.40702     3.18736
H      0.52251    -0.75102     2.70960
H      1.53690     0.80654    -1.72299
O      0.99166     1.55963    -1.99703
H      0.17528     1.16649    -2.33555
H     -1.67427     0.52556    -1.26361
O     -1.50744     0.29103    -2.19943
H     -2.33905     0.35596    -2.66730
