 27
-688.4340543491165
H      1.40123    -1.63933    -0.37368
O      1.88502    -0.79994    -0.49739
H      1.55416    -0.41974    -1.32183
H     -0.21756    -2.57223     0.81338
O      0.10139    -2.84084    -0.06130
H     -0.58552    -2.58827    -0.68838
H     -0.26644    -2.27567     3.25774
O     -0.47304    -1.73624     2.49421
H      0.16768    -1.00246     2.48714
H     -1.68685    -0.72598    -0.83432
O     -1.67901    -1.24865    -1.66889
H     -2.58990    -1.39819    -1.92247
H      0.57660     0.16167    -3.65613
O      0.39929     0.15988    -2.71590
H     -0.35812    -0.43254    -2.55447
H      1.41701     0.10617     0.89279
O      0.89588     0.48525     1.63929
H      1.03537     1.45030     1.64920
H      0.03214     1.62427    -1.63501
O     -0.38208     2.23701    -1.01261
H     -1.10081     1.73100    -0.61673
H      1.75956     3.73896     0.89940
O      1.00201     3.20174     1.13352
H      0.51397     3.02193     0.30192
H     -0.67168     0.32047     0.97873
O     -1.57779     0.10251     0.65707
H     -1.86341    -0.54797     1.30853
