 27
-688.4307301911851
H      2.26461    -0.94523    -0.00596
O      2.27552    -0.27894    -0.70400
H      1.62753    -0.59857    -1.34973
H      0.14622    -2.25412    -1.66069
O      0.18405    -1.42304    -2.17867
H      0.21053    -1.65989    -3.10644
H      0.19781     0.71372     1.10597
O     -0.26627    -0.00623     1.57098
H     -1.20549     0.17306     1.42422
H      0.17441     1.80047    -0.87405
O      0.83924     1.98046    -0.17590
H      1.55206     1.33118    -0.33609
H      0.72141    -1.36459     1.50283
O      1.39230    -2.08073     1.38063
H      1.81905    -2.20864     2.22707
H     -0.21066     3.05664     0.82518
O     -0.97870     3.39530     1.32829
H     -0.64827     3.64880     2.19154
H      0.74192    -3.18359     0.16136
O      0.36326    -3.63230    -0.61844
H      0.90150    -4.40757    -0.77647
H     -0.90585     0.06144    -1.75305
O     -1.25695     0.94773    -1.58786
H     -1.86649     0.87936    -0.84030
H     -2.20513     2.13401     1.07769
O     -2.65345     1.28371     0.88557
H     -3.59675     1.43151     0.93929
