 27
-688.4359911842238
H      3.06164    -2.37036     0.97132
O      2.42362    -1.66679     0.85747
H      1.61618    -2.05319     0.43780
H      2.46294    -0.26490    -0.40746
O      2.09273     0.41559    -0.98809
H      1.46946    -0.04414    -1.56510
H      0.19850    -0.47180     2.58455
O      1.05475    -0.04194     2.70025
H      1.67797    -0.61327     2.22943
H     -0.63270     2.24875    -0.39491
O     -1.21912     2.23485    -1.18469
H     -1.10173     3.06501    -1.64609
H     -0.45072     0.59914    -2.03451
O     -0.42123    -0.35444    -2.19400
H     -1.34219    -0.61177    -2.07099
H     -0.48242    -1.83986     0.37210
O      0.08020    -2.32043    -0.25784
H      0.00275    -1.81890    -1.08442
H     -2.06758    -0.31271     0.57259
O     -1.34003    -0.36990     1.20912
H     -0.83098     0.44823     1.09481
H      0.80880     1.40548     1.64012
O      0.54452     1.81825     0.79284
H      1.21680     1.51724     0.14359
H     -2.57455     1.03395    -1.05568
O     -3.02226     0.17400    -0.96958
H     -3.95673     0.35109    -0.85666
