 21
-535.4401151878953
H     -2.07649    -0.09560    -0.49224
O     -2.18497    -0.36494     0.42981
H     -1.96836     0.44271     0.91255
H      0.55127     1.01158     1.76041
O      1.21660     0.39828     2.09873
H      0.74406    -0.43976     2.17810
H     -0.96815    -1.45332     0.95624
O     -0.19625    -1.94052     1.32398
H     -0.53705    -2.70835     1.77906
H     -0.40660     0.59627    -2.17802
O     -1.20631     1.04147    -1.81173
H     -1.64392     1.47844    -2.54111
H      1.44099    -0.45209    -1.77270
O      1.03309    -0.18550    -2.63266
H      1.12155    -0.94243    -3.21111
H     -0.75796     1.83497    -0.22779
O     -0.71541     2.03784     0.72457
H     -0.52614     2.97368     0.80309
H      2.00419    -0.31242     0.50778
O      1.95373    -0.96585    -0.21153
H      1.32892    -1.60635     0.15677
