 27
-688.4369612922451
H     -0.22789    -2.98398    -0.86730
O     -0.28753    -3.52281    -0.06161
H      0.32840    -4.24656    -0.17384
H     -0.80510    -1.02869    -2.01870
O     -0.14709    -1.72911    -2.21057
H     -0.12082    -1.84138    -3.15982
H      0.77466     2.20454     1.71601
O     -0.00292     2.73502     1.41888
H     -0.04002     3.52760     1.95328
H     -1.88992     0.34584    -0.58068
O     -1.87226     0.26302    -1.57358
H     -2.77925     0.33974    -1.86716
H      0.08070     2.54811    -0.45592
O      0.27387     2.12399    -1.30485
H     -0.55218     1.71784    -1.59667
H      0.04384    -2.17170     1.19175
O      0.29920    -1.27954     1.47846
H      0.80467    -0.91477     0.72430
H      1.32705    -0.76065    -1.29618
O      1.63115    -0.11597    -0.64449
H      1.26035     0.74460    -0.93832
H      1.43554     0.20278     2.29219
O      1.92879     0.97942     1.99352
H      2.26923     0.70945     1.13005
H     -1.15223    -0.11957     1.36263
O     -1.73497     0.59053     1.03602
H     -1.27750     1.42220     1.23336
