  9
-229.4587771751233
H      1.49202    -1.72258    -0.56242
O      1.14198    -1.13134     0.10432
H      0.17434    -1.22942     0.06765
H     -1.18443     0.41519    -0.03249
O     -1.57974    -0.47288     0.00201
H     -2.13845    -0.47185     0.78011
H      0.70367     2.07456    -0.72246
O      0.34640     1.55710    -0.00073
H      0.92495     0.77998     0.08299
