 27
-688.4339262778061
H      1.25150     0.63148     0.99643
O      1.82715     0.89659     0.26168
H      1.74479     0.19250    -0.39516
H      1.78341    -2.08100    -0.40968
O      2.18627    -2.55752     0.33500
H      2.86121    -1.96693     0.67661
H     -1.95524    -1.16170    -0.65295
O     -1.79723    -2.12646    -0.71391
H     -2.58302    -2.54033    -1.06881
H      1.58000     3.62130    -1.22473
O      0.94483     3.31162    -0.57822
H      1.27967     2.44342    -0.25975
H     -0.02205    -1.76931    -1.44897
O      0.63578    -1.05995    -1.47127
H      0.07980    -0.27337    -1.35392
H     -0.22859    -0.84836     2.01741
O     -0.18690     0.14311     2.04835
H     -0.43018     0.41754     2.93211
H      0.61117    -2.71246     1.33328
O     -0.28165    -2.47264     1.63410
H     -0.84787    -2.54711     0.85095
H     -0.77163     3.33488    -0.90127
O     -1.73124     3.17671    -1.03494
H     -2.19154     3.83749    -0.51700
H     -1.13626     0.60193     0.48731
O     -1.49755     0.53389    -0.41201
H     -1.69398     1.44232    -0.70729
