 27
-688.4344816699769
H      1.18159    -1.72987    -0.24005
O      1.23525    -0.98782     0.38018
H      0.31700    -0.75774     0.58105
H      0.35850    -3.33864    -2.12071
O      0.50324    -2.42485    -1.87970
H     -0.36299    -1.97827    -1.82767
H     -0.80870    -0.03364     4.59035
O     -0.80754    -0.10560     3.63572
H      0.00783     0.33874     3.30588
H     -1.80791    -0.75270    -0.55227
O     -1.77757    -0.97367    -1.50861
H     -2.67264    -1.15815    -1.79236
H      2.05419    -0.09973    -1.21461
O      2.02952    -0.07943    -2.18383
H      1.71618    -0.96576    -2.40142
H      1.62844     0.35871     1.76934
O      1.25815     1.05568     2.32862
H      0.81107     1.63903     1.69567
H      0.61656     0.98372    -2.28691
O     -0.25736     1.39647    -2.12476
H     -0.88262     0.65977    -2.13081
H     -0.57213     3.23130     0.37308
O     -0.36526     2.29667     0.38002
H     -0.26153     2.02024    -0.56733
H     -1.38828     0.80776     0.94828
O     -1.55465    -0.14700     1.02888
H     -1.51470    -0.32398     1.98430
