 27
-688.4420091025945
H      0.93362    -0.72155    -1.31538
O      1.70430    -0.13910    -1.22863
H      2.02970    -0.27947    -0.32817
H     -1.34294    -1.25546    -1.22142
O     -0.56553    -1.84558    -1.39486
H     -0.76767    -2.36649    -2.17104
H      0.97675     0.73693     1.56793
O      0.15362     1.24327     1.63410
H     -0.03602     1.60974     0.75609
H     -0.04442     2.25256    -1.48885
O     -0.77927     2.22805    -0.83693
H     -1.17853     3.09963    -0.83355
H     -2.32170    -0.34445     2.91173
O     -1.83205    -0.47552     2.10104
H     -1.12395     0.21601     2.06057
H      2.87821    -1.08961     1.93152
O      2.11580    -0.77087     1.45083
H      1.42175    -1.47745     1.48158
H     -0.12691    -2.42465     0.31309
O      0.03926    -2.42384     1.26819
H     -0.72110    -1.96434     1.65448
H      2.14533     2.78776    -2.39343
O      1.37607     2.22301    -2.46177
H      1.64393     1.34013    -2.11873
H     -1.95140     0.75118    -0.71553
O     -2.40273    -0.09938    -0.60185
H     -2.42298    -0.26507     0.35298
