 27
-688.4257302651736
H      1.58513    -3.82662    -0.72256
O      1.23821    -3.44233     0.08217
H      1.35703    -2.47115    -0.00051
H     -0.19936     3.14221    -0.71173
O     -1.03962     2.93158    -1.14985
H     -1.62274     3.67684    -1.00436
H      1.03620     2.42183     1.07560
O      1.30677     3.13631     0.43526
H      1.61413     3.87743     0.95463
H     -2.07999    -0.17884    -0.13365
O     -1.34759     0.43626     0.05389
H     -1.44817     1.23331    -0.49178
H      0.29826    -0.45036    -0.24141
O      1.22288    -0.74523    -0.15300
H      1.75693    -0.10715    -0.65547
H      1.04314     0.32980     1.61952
O      0.51089     1.08210     1.91576
H     -0.35148     0.89550     1.50178
H     -0.45382    -3.49565     0.47303
O     -1.39118    -3.46227     0.76109
H     -1.35995    -3.50105     1.71849
H      3.53731     1.47879    -1.30838
O      2.58641     1.37036    -1.32454
H      2.21529     2.11537    -0.82440
H     -2.51969    -2.31215     0.02937
O     -3.08798    -1.62175    -0.37238
H     -3.36143    -1.96223    -1.22457
