 27
-688.428775973659
H     -3.24164    -0.03860    -1.99674
O     -2.43085    -0.16879    -2.48760
H     -1.82310    -0.66267    -1.89906
H      2.34468    -0.71763     0.22680
O      2.29620    -0.68223    -0.74613
H      2.90518    -1.33005    -1.09853
H     -0.54090    -1.66083     0.02289
O     -0.52833    -1.13775    -0.80562
H      0.40386    -0.95730    -0.99842
H     -1.28672     1.12100    -2.79397
O     -0.57342     1.77907    -2.91258
H     -0.40944     1.82725    -3.85512
H      2.58098     0.02742     2.55704
O      1.96021    -0.42960     1.98876
H      1.19528     0.16468     1.85811
H     -0.68206     0.62152     0.45994
O     -0.16937     1.15873     1.08458
H      0.43099     1.66211     0.48287
H     -2.48907     0.00662     3.17022
O     -1.57092    -0.24482     3.06741
H     -1.15316     0.45136     2.53228
H      0.69738     1.96782    -1.67078
O      1.36099     1.95478    -0.95804
H      1.85123     1.13370    -1.08773
H     -0.89173    -1.74582     2.25867
O     -0.34650    -2.29040     1.66738
H      0.55113    -2.10628     1.95821
