  9
-229.4511954637896
H      1.68973    -1.92499     0.64135
O      1.05667    -2.35203     0.05941
H      1.56340    -2.58368    -0.72162
H     -1.58575    -0.38997     0.18544
O     -0.90918    -0.34525    -0.49339
H     -0.30319    -1.07679    -0.30103
H     -0.38767     1.34524    -0.10189
O     -0.25227     2.23635     0.25794
H     -0.62019     2.84065    -0.38772
