 27
-688.4366734717275
H      3.67316     0.84221     0.51692
O      2.82593     0.47995     0.26092
H      2.19502     1.21801     0.14819
H      1.05106    -1.66420    -1.16416
O      1.63186    -1.10552    -1.69939
H      2.24466    -0.69558    -1.07494
H     -3.22448    -0.76731    -1.55771
O     -2.41735    -0.54575    -1.09456
H     -2.67389    -0.14246    -0.23208
H      0.36978     1.76635    -1.02377
O      0.78218     2.20982    -0.23349
H      0.81373     3.14578    -0.42775
H     -0.77071    -3.16663    -0.22038
O     -0.46587    -2.25933    -0.21925
H     -1.19271    -1.70179    -0.55502
H      0.01249     1.58430     1.41181
O     -0.39531     1.08169     2.13352
H      0.14944     0.27153     2.21690
H      0.62251    -1.64526     1.19285
O      1.16017    -1.15040     1.82626
H      1.87816    -0.75978     1.31114
H      0.48229     0.13646    -2.29336
O     -0.20974     0.82977    -2.28360
H     -1.01972     0.38296    -1.99535
H     -1.96738     0.66986     1.68532
O     -2.87301     0.45192     1.34203
H     -3.47108     1.05774     1.77659
