  9
-229.4587776161149
H      1.78513    -1.36545     0.53483
O      1.16590    -1.15618    -0.16460
H      1.29178    -0.21128    -0.35739
H     -0.70961    -0.85733     0.04601
O     -1.47953    -0.26288     0.04276
H     -2.05991    -0.60192    -0.63971
H      0.68288     2.29046     0.16798
O      0.57796     1.57350    -0.45799
H     -0.31123     1.21105    -0.29891
