  9
-229.4502800754759
H      1.80230    -2.59620    -0.75585
O      1.03768    -2.63076    -0.17694
H      0.35137    -3.05290    -0.69833
H      0.50715    -0.86262     0.22105
O      0.22504     0.06221     0.22019
H      0.19246     0.33746     1.14029
H     -0.74616     1.68821    -0.04482
O     -1.15282     2.46593     0.36060
H     -1.41174     3.03678    -0.36289
