  9
-229.4587747129202
H      1.45569    -1.59539    -0.83018
O      1.15675    -1.17325    -0.02394
H      0.18898    -1.27170    -0.02451
H     -1.17197     0.38304    -0.05191
O     -1.56247    -0.50732    -0.03521
H     -2.17608    -0.50903     0.69964
H      0.94346     0.72619     0.05243
O      0.37935     1.51923     0.05982
H      0.70078     2.06392     0.77858
