  9
-229.4587771751233
H      1.92316    -1.35358    -0.81880
O      1.60271    -0.89583    -0.04082
H      0.67415    -1.16923     0.05604
H     -0.97906     0.19323    -0.00928
O     -1.18697    -0.74664     0.12829
H     -1.73845    -0.78051     0.91003
H      1.03425     0.92563    -0.13939
O      0.33057     1.59768    -0.15911
H      0.59535     2.27434     0.46426
