  9
-229.45877438217647
H      1.51459    -1.61365     0.67229
O      1.13599    -1.10329    -0.04391
H      0.17076    -1.17861     0.05590
H     -1.16098     0.49214     0.05504
O     -1.56959    -0.38735     0.13097
H     -2.15938    -0.45816    -0.62060
H      0.77876     2.15428     0.50212
O      0.38525     1.59725    -0.16978
H      0.94320     0.80196    -0.21454
