 21
-535.4411892596864
H      0.20013    -2.54196    -1.78563
O      0.25030    -1.61162    -1.57087
H      0.59924    -1.53777    -0.65323
H      0.33610     1.76817     0.69411
O      0.17636     2.01280    -0.22638
H      0.91254     1.63673    -0.73012
H      1.18056    -0.37553     1.31930
O      1.58968    -0.92861     0.63664
H      2.14840    -0.32835     0.13050
H     -2.97414    -0.27940     1.89813
O     -2.06729    -0.43867     1.63754
H     -2.02943    -0.25662     0.66508
H      0.35975     1.02088     3.23634
O      0.23359     0.74330     2.32987
H     -0.65934     0.33751     2.24633
H      2.20785     0.93536    -2.66960
O      1.96326     0.53905    -1.83339
H      1.35918    -0.19484    -2.03415
H     -1.23178     1.02032    -0.77856
O     -1.81497     0.25428    -0.94085
H     -1.26163    -0.39333    -1.39701
