 27
-688.4313300867583
H      2.25443    -1.21473     1.21487
O      3.15948    -0.90138     1.41635
H      3.75837    -1.45998     0.91829
H     -0.24042    -0.81455    -2.16363
O     -0.53767    -1.64848    -1.76140
H     -1.48768    -1.52662    -1.62087
H     -2.55802    -1.40018     0.91598
O     -2.03118    -1.04400     1.63967
H     -2.05225    -0.09428     1.46091
H     -1.01910     1.56411     0.18903
O     -1.99014     1.44969     0.23826
H     -2.36785     2.27416     0.54355
H      0.75993     0.45126     0.48406
O      0.71234     1.38731     0.20735
H      1.52507     1.79188     0.56769
H      3.23226     0.85441     1.40060
O      3.13383     1.82944     1.34693
H      3.37355     2.17423     2.20824
H     -2.78841     0.15317    -0.75269
O     -3.10881    -0.70477    -1.07964
H     -3.75153    -0.51946    -1.76439
H      0.51840     1.20780    -1.61004
O      0.26114     0.90494    -2.49868
H      1.00588     1.08340    -3.07402
H     -0.27538    -1.43488     1.23761
O      0.54761    -1.41030     0.70893
H      0.26847    -1.64619    -0.20674
