 27
-688.4241551901756
H     -1.91125    -0.97950     2.17351
O     -1.40970    -0.77757     2.99327
H     -1.74152     0.06604     3.31100
H     -0.20717    -1.26193    -1.60691
O      0.06084    -1.89533    -0.88995
H      0.02043    -2.77955    -1.25694
H      2.06222    -1.22994    -0.95730
O      2.62444    -0.48008    -0.73235
H      2.33619    -0.25542     0.16186
H     -2.29599    -0.24614     0.20951
O     -2.40949    -1.16406     0.50098
H     -1.71114    -1.63837     0.03143
H      2.29370     0.65922    -2.05151
O      1.89809     1.17316    -2.78403
H      2.59556     1.35302    -3.41382
H      0.44696     1.38502     2.26182
O     -0.16453     2.11195     2.45408
H      0.38281     2.88236     2.60641
H     -1.04237     0.68855    -2.03250
O     -0.58544     0.04592    -2.59062
H      0.24340     0.48984    -2.84345
H      0.59345    -1.17888     0.83515
O      0.81274    -0.49244     1.48342
H      0.15943    -0.65010     2.19789
H     -1.13678     1.81788     0.73523
O     -1.12269     1.29635    -0.08029
H     -0.28688     0.81647    -0.00683
