 27
-688.4417259124887
H      1.60113    -1.66385    -0.52095
O      2.14650    -1.50547     0.26528
H      1.53181    -1.57625     1.01202
H     -0.56073    -1.81061    -1.12108
O      0.17947    -1.61515    -1.75716
H      0.09563    -2.24166    -2.47582
H      0.09007    -0.11370     1.96490
O      0.08435    -1.08595     2.14148
H      0.00285    -1.19356     3.08792
H     -0.65728     1.82755    -1.26276
O     -1.36308     2.17059    -0.65360
H     -1.61051     3.03666    -0.97579
H      3.53243     1.39181     0.03722
O      2.62793     1.08885    -0.02477
H      2.62536     0.10836     0.12123
H      1.16225     1.56030     1.05283
O      0.32055     1.52114     1.53325
H     -0.34870     1.84861     0.91532
H     -2.29726    -1.39826     0.16128
O     -1.61865    -2.09411     0.13768
H     -1.07617    -1.91687     0.92194
H      0.54048     0.19531    -2.05015
O      0.67552     1.15659    -2.01576
H      1.44211     1.28182    -1.43582
H     -2.49601     0.90675    -0.03159
O     -3.10586     0.21420     0.27046
H     -3.96536     0.42829    -0.09117
