 27
-688.4381137870424
H      1.56249    -1.73993    -0.65349
O      1.99021    -1.42083     0.15632
H      1.26339    -1.30554     0.79356
H     -0.54057    -2.21680    -1.20800
O      0.17583    -1.98255    -1.85141
H      0.09316    -2.56245    -2.60723
H     -0.83007     0.02794     1.27698
O     -0.17250    -0.50126     1.75636
H      0.35734     0.18244     2.19167
H     -0.82789     1.59824    -0.39598
O     -1.26708     1.77530     0.45964
H     -0.57539     2.10210     1.05183
H      3.45907     1.32083    -0.48837
O      2.58442     1.13103    -0.15039
H      2.51487     0.14545    -0.03471
H      1.71306     1.81750     1.23301
O      1.08014     1.99525     1.95536
H      1.47739     2.61739     2.56235
H     -2.27389    -1.49414    -0.18124
O     -1.66513    -2.21993     0.04927
H     -1.21959    -1.94019     0.86018
H      0.17022    -0.12882    -1.83249
O      0.16762     0.83018    -1.69358
H      1.04067     1.05860    -1.34647
H     -2.71844     0.77034    -0.17951
O     -3.01683     0.05324    -0.76207
H     -2.64924     0.29049    -1.61701
