 18
-458.93653793614754
H      0.48053    -0.99816    -1.31881
O      0.77722    -0.16720    -1.70590
H     -0.01251     0.20579    -2.11036
H     -0.88363     2.14434    -0.90209
O     -1.46860     1.83561    -1.60640
H     -1.85231     2.62752    -1.98561
H      0.77453    -1.82775     0.92068
O      0.05909    -2.25929     0.40682
H     -0.15592    -3.07540     0.86032
H      0.78427     1.01126    -0.21745
O      0.49557     1.46639     0.59192
H     -0.34000     1.02199     0.82648
H      2.80613    -0.69769     1.23146
O      1.95083    -0.73501     1.66494
H      1.55652     0.14688     1.52864
H     -2.11586     0.14459    -0.18604
O     -1.77518    -0.13052     0.67009
H     -1.28345    -0.95057     0.50605
