 21
-535.4316066592156
H      0.82404    -1.92407     0.49382
O      1.48421    -1.57335     1.13879
H      1.37627    -2.06966     1.95009
H      0.13783     2.10696    -0.34407
O     -0.54191     2.55846    -0.89583
H     -0.31675     3.48812    -0.89277
H     -3.50446    -1.52872    -0.89651
O     -2.75581    -1.31765    -0.33859
H     -2.76032    -0.34034    -0.24643
H     -2.97589     1.75572     0.79001
O     -2.84291     1.39066    -0.08583
H     -2.03850     1.83408    -0.43316
H      4.00753    -0.31962    -0.56147
O      3.63615    -0.03958     0.27532
H      3.04023    -0.75216     0.56099
H      0.97725     0.36708     1.03117
O      1.20801     1.24764     0.71079
H      2.14366     1.13408     0.48623
H     -0.09271    -2.26062    -1.55511
O     -0.31691    -2.45775    -0.64367
H     -1.20563    -2.06467    -0.49905
