 27
-688.4297055472024
H      0.51759    -1.18026     1.31852
O      0.97459    -1.24697     0.46856
H      0.36983    -1.60486    -0.20313
H     -1.46177    -1.54347    -1.62537
O     -0.52159    -1.76272    -1.81718
H     -0.51084    -2.60468    -2.27355
H      0.29398     0.68073     2.73211
O     -0.13276    -0.19852     2.80194
H     -0.11519    -0.46119     3.72075
H     -2.84282    -0.64328    -0.28469
O     -3.03030    -1.14263    -1.11233
H     -3.58787    -0.57336    -1.64347
H      2.47455    -0.76423    -0.39313
O      3.07998    -0.34641    -1.03132
H      3.62100     0.26136    -0.52529
H      0.58642     3.12460     2.48669
O      0.86684     2.25645     2.19599
H      0.64283     2.18998     1.24790
H      1.86802     0.26332    -2.28943
O      1.01929     0.49340    -2.70184
H      0.48648    -0.30788    -2.59276
H      0.54675     0.54409    -0.00125
O      0.14771     1.38393    -0.28927
H      0.34013     1.38949    -1.24689
H     -1.59179     0.91768     0.45023
O     -2.19436     0.35501     0.96072
H     -1.65636     0.04166     1.69988
