  9
-229.4585907091751
H      0.20916    -1.01996    -0.04486
O      1.15387    -0.84971    -0.20365
H      1.54669    -1.68557    -0.45508
H     -2.21957    -0.46485    -0.57821
O     -1.58696    -0.40460     0.13861
H     -1.26356     0.51323     0.12282
H      0.47717     2.22064     0.76758
O      0.16199     1.78236    -0.02326
H      0.79896     1.06800    -0.18240
