 18
-458.9432046266606
H      2.68020     0.26138    -0.20602
O      1.81227     0.04203     0.13207
H      1.66619    -0.91795    -0.03959
H      0.92896     0.70126     1.54982
O      0.41012     1.13938     2.24710
H      1.01658     1.71217     2.71751
H     -1.91021    -1.88041    -1.67803
O     -0.99453    -1.67082    -1.86460
H     -0.90651    -0.69510    -1.74849
H     -1.04634     1.74650     1.46142
O     -1.77729     2.02047     0.87198
H     -2.57980     1.68535     1.27371
H      1.64898    -3.17826    -0.93525
O      1.17617    -2.49468    -0.45984
H      0.36240    -2.31059    -0.98261
H     -1.07269     1.39957    -0.67193
O     -0.51492     0.94362    -1.32644
H      0.33860     0.84803    -0.88345
