  9
-229.45877728537118
H      1.77977    -1.61467     0.30839
O      1.27187    -1.13891    -0.34991
H      0.33995    -1.29562    -0.11891
H     -1.02482     0.26105     0.42723
O     -1.37366    -0.64675     0.42003
H     -2.16525    -0.61882    -0.11758
H      0.48454     2.10850    -0.68631
O      0.39959     1.49645     0.04512
H      0.97728     0.74321    -0.16977
