  9
-229.45877419842998
H      1.27488    -1.74298     1.11653
O      1.09524    -1.30158     0.28626
H      1.20781    -0.35143     0.46057
H     -0.63438    -0.95929    -0.44930
O     -1.34636    -0.34192    -0.69079
H     -1.43798    -0.41964    -1.64119
H      0.17599     1.95383     1.23825
O      0.47414     1.42712     0.49648
H     -0.33162     1.09050     0.06673
