 30
-764.9216441118937
H     -5.04466     0.32576     1.25577
O     -4.40757     0.64171     0.61377
H     -4.17956    -0.12857     0.05375
H      2.27019     2.70182     1.71511
O      2.39525     2.63073     0.76756
H      1.50779     2.72974     0.38366
H      0.84415    -3.35453     1.54769
O      0.99693    -3.00683     0.66759
H      1.95422    -2.78858     0.64268
H     -0.62805     3.54099    -0.61089
O     -0.18697     2.73068    -0.35609
H     -0.82190     2.21378     0.21777
H      4.30563    -2.70101     0.15717
O      3.62316    -2.32700     0.71407
H      3.49466    -1.39832     0.41066
H     -2.72042     1.09533     1.00743
O     -1.74816     1.13967     1.08732
H     -1.43373     0.26238     0.81221
H      0.81638     0.82130    -2.84964
O      0.70565     0.66461    -1.91288
H      0.41369     1.49906    -1.49448
H     -0.16291    -1.81372     0.05881
O     -0.75616    -1.13647    -0.32098
H     -0.23011    -0.64472    -0.96781
H      2.20573     0.08733    -0.86382
O      2.96250     0.10168    -0.26309
H      2.91859     0.97630     0.16013
O     -3.42455    -1.43406    -0.84308
H     -2.45894    -1.39446    -0.67821
H     -3.53992    -1.64221    -1.77088
