 27
-688.4356364799802
H      1.66000    -1.28236    -0.53842
O      2.49454    -0.94554    -0.17449
H      2.73529    -0.24340    -0.79161
H     -1.52642    -3.94979    -1.48179
O     -1.73227    -3.01466    -1.50988
H     -2.08411    -2.77972    -0.62283
H     -1.38994     1.02515     1.00264
O     -1.04047     0.12000     1.11582
H     -0.20391     0.20909     1.59936
H     -0.54675     2.86646     0.49676
O     -1.51407     2.77684     0.66633
H     -1.78127     3.55393     1.15692
H      1.38106     2.13707    -0.47400
O      1.15043     2.60091     0.34470
H      1.42823     2.00392     1.05411
H      2.04363    -0.18403     1.26486
O      1.64468     0.38202     1.97271
H      2.10427     0.19045     2.78809
H     -3.47007    -1.88019     1.05175
O     -2.55890    -2.15174     0.93073
H     -2.01481    -1.35310     1.08945
H      1.59375     1.56240    -2.83276
O      1.66519     1.09902    -1.99773
H      0.98055     0.40066    -2.00023
H     -0.51351    -0.48329    -0.62281
O     -0.04342    -0.89917    -1.36740
H     -0.57665    -1.67851    -1.61480
