 27
-688.4296665194458
H      3.94794    -2.50100     0.72074
O      3.07515    -2.29764     1.05824
H      2.45449    -2.48093     0.33410
H      0.14561    -2.12882    -0.59422
O      1.05644    -2.18895    -0.98045
H      1.03196    -2.93697    -1.58024
H      0.01784     0.14419     1.50563
O     -0.93701     0.12640     1.69072
H     -1.20526     1.04644     1.82766
H     -0.83401     2.66922     0.41129
O     -1.68613     2.66032     0.90926
H     -1.77512     3.51833     1.32313
H      0.26360    -0.46762    -2.22828
O     -0.05073     0.42935    -2.09967
H     -0.93977     0.35734    -1.70987
H      1.58329    -0.25972    -0.11633
O      1.73289     0.09613     0.77087
H      2.32177    -0.56111     1.17383
H     -2.02219    -1.45357    -0.55780
O     -1.42740    -1.97788    -0.00755
H     -1.31772    -1.42259     0.78422
H      1.25036     1.87981     0.22356
O      0.68853     2.43320    -0.33816
H      0.53555     1.87422    -1.11790
H     -2.24165     0.54369     0.14037
O     -2.48837     0.51360    -0.79689
H     -2.70211     1.42853    -0.99523
