  9
-229.45877993132078
H      0.22624    -1.17755     0.14908
O      1.17964    -1.09646    -0.02469
H      1.37641    -1.73973    -0.70590
H     -1.13311     0.47609    -0.00285
O     -1.53127    -0.39222     0.18369
H     -2.25037    -0.49078    -0.44068
H      0.72738     2.15911     0.35447
O      0.39567     1.57538    -0.32881
H      0.96155     0.78508    -0.29027
