  9
-229.45877497016528
H      0.33260    -0.97715    -0.00694
O      1.28133    -0.79078    -0.11853
H      1.72485    -1.24730     0.59665
H     -2.07917    -0.55058    -0.65942
O     -1.48651    -0.39413     0.07668
H     -1.18473     0.52493    -0.02590
H      0.86444     1.07649    -0.32311
O      0.21384     1.79861    -0.29339
H      0.54211     2.42008     0.35658
