  9
-229.4577036178224
H      1.52910    -1.77873     0.41950
O      1.16459    -1.09973    -0.14725
H      0.20001    -1.22571    -0.14085
H     -1.17291     0.41879    -0.00342
O     -1.54429    -0.47987     0.00339
H     -2.22459    -0.48252     0.67585
H      0.94275     0.78663    -0.07244
O      0.35393     1.55531     0.01907
H      0.80223     2.17319     0.59547
