 27
-688.4315353683481
H     -0.48896    -1.26293    -1.55301
O     -1.38483    -1.42460    -1.22714
H     -1.93826    -0.72600    -1.62286
H      2.24136    -0.35776    -1.42282
O      1.34175    -0.68511    -1.26333
H      1.44177    -1.18434    -0.43985
H     -0.29823    -0.07337     2.03752
O      0.50450     0.45756     2.16226
H      0.45429     1.13090     1.46717
H     -3.87738     0.70248    -2.12603
O     -2.93896     0.70773    -1.93597
H     -2.83144     1.17034    -1.07398
H      3.62677    -0.36218     0.16416
O      3.91232     0.02946    -0.67866
H      4.79633    -0.29229    -0.85239
H     -1.59269    -1.21790     0.42387
O     -1.73911    -0.94575     1.36551
H     -2.38635    -1.54584     1.73321
H      2.41333    -1.96227     1.86459
O      2.43581    -1.16042     1.34452
H      1.77220    -0.53911     1.74715
H      0.56635     0.83838    -0.78495
O      0.34811     1.69759    -0.36850
H      0.94966     2.34574    -0.73343
H     -1.40108     1.91271     0.23146
O     -2.31154     1.70362     0.48856
H     -2.23341     0.90118     1.02281
