  9
-229.4587825405211
H      0.19971    -1.23433    -0.08984
O      1.16188    -1.10262    -0.04044
H      1.46126    -1.63926     0.69363
H     -1.19675     0.39255    -0.01012
O     -1.58055    -0.50171    -0.02677
H     -2.23378    -0.52035     0.67292
H      0.54681     2.05442    -0.80370
O      0.31149     1.56577    -0.01414
H      0.89943     0.79084    -0.00544
