 21
-535.4359323090708
H     -0.57009    -0.44376     1.07045
O     -0.58558    -1.39410     0.89554
H     -1.40223    -1.53935     0.38817
H      0.32799     1.75172     0.58753
O     -0.45629     1.46770     1.11392
H     -0.38721     1.89455     1.96828
H      1.58896    -2.80795    -0.82795
O      1.77753    -2.20905    -0.10538
H      0.90219    -1.96276     0.27945
H     -2.44032     1.82278    -1.30784
O     -2.65933     1.32988    -0.51638
H     -1.89530     1.42868     0.08174
H      4.02420    -0.13262     0.25377
O      3.29169     0.00677    -0.34753
H      2.73989    -0.80618    -0.28575
H      2.28382     1.39269    -0.34114
O      1.65895     2.15262    -0.37475
H      1.66329     2.44050    -1.28771
H     -3.80514    -1.63703    -0.20963
O     -2.94393    -1.37948    -0.54096
H     -2.95755    -0.40317    -0.60226
