 27
-688.4282876122113
H      2.11633     0.79243     0.16044
O      1.37241     0.43126    -0.35556
H      0.56821     0.88644    -0.05398
H      1.16786    -1.24539     0.11794
O      0.78034    -2.13318     0.28110
H      1.48976    -2.67751     0.62152
H      0.17838    -1.88376    -1.64121
O      0.08205    -1.22833    -2.34447
H      0.57713    -0.47454    -1.99673
H     -1.71599     1.40547    -0.45583
O     -1.17064     1.42617     0.36382
H     -1.30411     2.29810     0.73947
H      2.67603     0.86453     2.19306
O      3.26241     1.19065     1.47909
H      4.14506     0.87941     1.67728
H      0.58838    -0.13165     2.86907
O      1.40857     0.25674     3.25783
H      1.11904     0.76327     4.01680
H     -1.14183    -0.03960     1.55015
O     -0.81840    -0.73381     2.14335
H     -0.49528    -1.42770     1.55079
H     -2.95371    -1.59139    -2.99618
O     -2.46510    -0.78808    -3.17853
H     -1.52780    -0.97947    -2.94847
H     -2.68878     0.70622    -2.34014
O     -2.66330     1.57136    -1.87367
H     -2.44241     2.21183    -2.55151
