 18
-458.94388511344863
H     -0.14539    -1.52714    -0.39420
O      0.72013    -1.58098    -0.88958
H      1.01535    -2.48885    -0.83523
H      0.36722    -0.60973     3.40958
O     -0.14950    -0.18307     2.72660
H      0.49548     0.22519     2.11388
H      0.81817    -0.07431    -1.88099
O      0.75468     0.86924    -2.11406
H      1.01497     0.95573    -3.03057
H     -1.69375    -0.21953     0.11881
O     -1.49329    -1.09718     0.48351
H     -1.20265    -0.91412     1.39357
H      1.29764     1.21869     0.11157
O      1.62181     0.61652     0.78813
H      1.63634    -0.23515     0.33190
H     -0.74325     1.37996    -1.27035
O     -1.48273     1.44732    -0.64362
H     -2.16600     1.97125    -1.05998
