 27
-688.4328639657911
H     -2.51217    -2.04412     0.06332
O     -2.40525    -2.60846     0.85691
H     -3.28626    -2.84276     1.14936
H      0.56001    -0.86621    -1.22565
O      0.99853    -1.49194    -0.60537
H      0.70910    -2.37628    -0.83559
H      2.00291     1.07570     1.04129
O      2.48610     0.82446     0.24076
H      2.24990    -0.09611     0.07691
H     -1.77624    -0.56422    -1.74406
O     -2.51627    -0.76240    -1.15535
H     -2.62989     0.06362    -0.67178
H      2.40168     1.65455    -1.29729
O      2.19545     1.93083    -2.21735
H      2.99238     1.79203    -2.72874
H      0.48156     0.40152     2.52899
O      0.96116     1.24876     2.55976
H      1.39295     1.28859     3.41378
H     -0.50507     1.04564    -1.24407
O     -0.14526     0.53493    -1.98882
H      0.63738     1.03661    -2.29177
H      0.22888    -1.21485     0.98027
O     -0.37049    -0.96995     1.71067
H     -1.10518    -1.60744     1.66528
H     -0.84232     2.04634     0.92829
O     -1.32907     1.35704     0.47010
H     -1.15212     0.55019     0.98695
