 27
-688.428967070019
H      1.41690     0.62447     1.14152
O      2.12322     0.97946     0.56233
H      2.95822     0.75217     0.97182
H      0.84967    -1.96321    -0.72242
O      0.53225    -2.65292    -0.11267
H     -0.43543    -2.64584    -0.22027
H     -2.81929    -2.34128    -0.92438
O     -2.17969    -2.08234    -0.26060
H     -2.01478    -1.12896    -0.38612
H      1.31796     2.34405    -2.02527
O      1.15003     2.83376    -1.21590
H      1.51133     2.27038    -0.51040
H      0.19378    -0.03353    -1.46208
O      1.06138    -0.42267    -1.66038
H      1.67934     0.02538    -1.06745
H      0.11912    -0.83959     2.25710
O      0.01783     0.11842     2.01888
H     -0.24614     0.58258     2.81465
H      0.63278    -2.65134     1.60140
O      0.44815    -2.44967     2.55120
H     -0.28824    -3.01475     2.78948
H     -1.87377     3.65910    -1.76229
O     -1.53714     3.17567    -1.00761
H     -0.55840     3.20117    -1.07212
H     -0.92201     0.50032     0.44278
O     -1.33538     0.50370    -0.43437
H     -1.57398     1.42466    -0.64062
