 27
-688.435989016015
H      0.95572    -0.63382    -1.15930
O      1.77921    -0.12671    -1.08842
H      2.05417    -0.23001    -0.16743
H     -1.38087    -1.01764    -1.01058
O     -0.63084    -1.66395    -1.16354
H     -0.88415    -2.20746    -1.90801
H      0.89587     0.85786     1.59690
O      0.04103     1.30847     1.57819
H     -0.07577     1.66912     0.68459
H      0.04276     2.31403    -1.54482
O     -0.68949     2.34136    -0.89237
H     -0.91282     3.26266    -0.74955
H     -1.32592    -1.36117     2.02829
O     -1.88048    -0.57287     1.98737
H     -1.24586     0.17187     1.99355
H      2.67841    -0.83730     2.30573
O      2.03034    -0.69180     1.61843
H      1.37529    -1.41234     1.66194
H      0.00401    -3.50021     1.40021
O      0.07771    -2.55280     1.29244
H     -0.17184    -2.33289     0.36951
H      1.44832     1.93725    -3.46670
O      1.44591     2.12778    -2.52891
H      1.73872     1.30814    -2.07203
H     -2.00486     0.97179    -0.65957
O     -2.46391     0.12043    -0.57422
H     -2.48207    -0.09768     0.38212
