  9
-229.4587825405211
H      1.79858    -1.30767    -0.70038
O      1.25800    -1.08855     0.05950
H      1.25053    -0.11667     0.09793
H     -2.08777    -0.98818     0.44785
O     -1.49087    -0.59357    -0.18815
H     -0.64918    -1.07415    -0.09946
H      0.14699     2.13585     0.75854
O      0.30789     1.54631     0.02162
H     -0.52510     1.06475    -0.11947
