  9
-229.4587772118726
H      1.55536    -1.70212    -0.53246
O      1.18565    -1.15088     0.15754
H      0.21913    -1.22663     0.07157
H     -1.10823     0.44660     0.02850
O     -1.51823    -0.43449    -0.01438
H     -2.10825    -0.47761     0.73901
H      0.82631     2.08762    -0.51156
O      0.44257     1.55516     0.18532
H      1.00085     0.76158     0.25067
