 27
-688.4421703217737
H      0.78635    -0.59879    -1.40484
O      1.45193     0.09975    -1.50175
H      1.97590     0.06710    -0.68905
H     -1.31775    -1.44330    -0.87909
O     -0.51321    -1.93544    -1.18492
H     -0.78975    -2.54179    -1.87035
H      1.18528     0.99478     1.36476
O      0.31811     1.37835     1.56304
H     -0.06542     1.67858     0.72327
H     -0.65367     2.18001    -1.50914
O     -1.20007     2.11430    -0.69518
H     -1.63590     2.96076    -0.58258
H     -1.60707    -0.46565     3.33760
O     -1.27117    -0.57164     2.44867
H     -0.69305     0.20838     2.25011
H      3.37232    -0.50844     1.36382
O      2.48965    -0.33159     1.04158
H      1.93157    -1.12868     1.22577
H      0.33511    -2.34555     0.41340
O      0.68355    -2.26945     1.31463
H     -0.04646    -1.90152     1.83445
H      0.28530     2.01438    -3.73844
O      0.45883     2.22050    -2.82050
H      0.97645     1.46800    -2.45468
H     -2.09406     0.50300    -0.30855
O     -2.38561    -0.39833    -0.10108
H     -2.20562    -0.52436     0.84326
