 27
-688.4316017743332
H      2.03027    -2.05817     0.11431
O      2.18252    -1.22416     0.59170
H      1.47457    -1.20975     1.24846
H      0.22850    -2.77970    -0.88891
O      1.07504    -3.26307    -0.83505
H      0.86716    -4.18451    -0.67728
H      0.39863     0.40555     1.86597
O     -0.33743    -0.21588     1.69116
H     -1.12210     0.33766     1.58142
H     -1.11330     2.20795     0.32084
O     -1.96404     1.95316     0.72837
H     -2.22177     2.65033     1.33077
H      0.36010    -0.49629    -1.70541
O      1.12523     0.10127    -1.66307
H      1.71790    -0.29984    -1.00358
H      1.59373     1.94898     0.98108
O      1.87564     1.36804     1.69914
H      2.42060     0.68608     1.28370
H     -1.86570    -1.10468    -0.90690
O     -1.00629    -1.51532    -0.71009
H     -0.74570    -1.19048     0.17205
H      0.69318     3.11350    -1.10560
O      0.44294     2.39191    -0.52971
H      0.66631     1.55355    -1.01661
H     -2.86643     0.83393    -0.40088
O     -3.18434     0.15605    -1.01896
H     -3.39436     0.61125    -1.83410
