 15
-382.44864249269295
H      0.33151     0.83658     1.24544
O     -0.60201     1.14646     1.19550
H     -0.87800     1.36917     2.08417
H      1.34242    -2.89940    -0.28864
O      1.34314    -1.95202    -0.42838
H      0.40975    -1.69623    -0.60171
H     -0.97472     2.13172    -1.93180
O     -1.57591     1.61875    -1.39145
H     -1.24189     1.68467    -0.48229
H      1.81044    -0.66064     0.66712
O      1.91102     0.16010     1.19460
H      2.58033     0.67239     0.73885
H     -1.25567    -0.58529     0.27787
O     -1.21062    -1.03235    -0.57632
H     -1.43517    -0.30624    -1.17715
