 27
-688.4248791881348
H      1.92709    -1.11175    -1.35092
O      1.97768    -0.60424    -2.16517
H      1.24102    -0.95371    -2.68009
H     -0.30517    -1.82808    -1.45527
O     -0.57660    -1.76221    -2.38748
H     -1.21889    -2.45460    -2.54201
H      0.33396     1.47886     2.18166
O     -0.42633     1.48585     2.78956
H     -0.60257     2.40129     3.00965
H     -0.68860     1.37115    -1.68415
O     -1.52241     0.86303    -1.59762
H     -1.38345     0.07117    -2.13410
H     -1.34977    -1.50239     2.37975
O     -0.49853    -1.67520     2.80164
H     -0.31126    -0.83645     3.23495
H      1.26208     0.18885     0.54481
O      1.57686     1.03636     0.91844
H      2.50902     0.93833     1.11332
H     -0.52888    -0.84809     0.34089
O      0.33533    -1.31285     0.21668
H      0.43603    -1.73683     1.08347
H      1.19080     1.97720    -0.76956
O      0.96059     1.91008    -1.70552
H      1.44799     1.12085    -2.00204
H     -1.63694     0.63172     1.58694
O     -1.92571    -0.01320     0.92224
H     -1.94568     0.43707     0.05166
