 21
-535.433233587476
H     -0.39539     1.22156    -0.17506
O     -1.23141     1.69969    -0.07519
H     -1.03720     2.28134     0.67445
H      0.83338     2.06099     1.66837
O      0.29305     2.80517     1.98401
H      0.85817     3.57701     1.94315
H      0.12929    -2.15796    -0.32970
O      0.99836    -2.18540     0.13712
H      0.95523    -2.90678     0.76483
H     -3.93193     0.00002    -0.20781
O     -3.03440    -0.30817    -0.09096
H     -2.45890     0.48999    -0.03837
H      3.08039    -0.79954    -2.01463
O      3.06766    -0.75478    -1.05854
H      2.46618    -1.45706    -0.75995
H      2.04347     0.45905    -0.02191
O      1.31213     0.58519     0.60221
H      1.07537    -0.32602     0.82577
H     -2.01587    -1.53081    -0.72544
O     -1.36376    -2.14320    -1.13150
H     -1.39710    -1.96500    -2.07220
