 27
-688.4310496161007
H      0.67893    -2.04076    -2.67429
O      0.82354    -1.39378    -1.98214
H      1.02813    -1.88804    -1.16925
H     -0.05514    -2.67030     0.59299
O      0.90503    -2.73410     0.36316
H      1.26804    -3.47567     0.84711
H      2.32843     2.74966    -0.06653
O      1.56717     2.16913    -0.05442
H      1.33674     1.94715    -0.99298
H      0.02292     2.65457     0.76274
O     -0.87170     2.84336     1.09814
H     -1.34946     3.24748     0.37275
H      1.54472     0.58977     0.91233
O      1.37666    -0.13960     1.52688
H      1.48021    -0.96917     1.04423
H     -1.38488     1.19056     1.74150
O     -1.29004     0.22266     1.78456
H     -0.33152     0.07741     1.93563
H     -2.21101    -2.18201     0.10707
O     -1.68667    -2.32585     0.89924
H     -1.70061    -1.46322     1.36339
H      1.00202     0.44790    -2.50259
O      0.70799     1.36678    -2.42250
H     -0.20318     1.26003    -2.09378
H     -1.38202     0.26366    -0.08980
O     -1.36009     0.21276    -1.05960
H     -0.73154    -0.48395    -1.29675
