  9
-229.45877658713448
H      1.28401    -0.07458    -0.08529
O      1.27303    -1.04624    -0.13105
H      1.78018    -1.34185     0.62596
H     -2.04135    -0.84739    -0.67366
O     -1.47584    -0.51780     0.02509
H     -0.63788    -1.00594    -0.05683
H      0.26240     2.24315    -0.62015
O      0.37018     1.59581     0.07687
H     -0.47844     1.12442     0.13473
