  9
-229.458596331818
H      0.67378    -0.92802    -0.17101
O      1.57942    -0.57469    -0.21164
H      2.17178    -1.32451    -0.15673
H     -1.61656    -0.92482     0.95338
O     -1.19572    -0.68675     0.12642
H     -1.05323     0.27482     0.17487
H      0.88210     1.22305     0.07970
O      0.10418     1.79882     0.14919
H      0.13611     2.34904    -0.63379
