 24
-611.9417793445838
H     -2.70539     2.45204     0.92119
O     -2.01071     1.82143     0.73575
H     -1.39207     1.80725     1.49994
H     -1.43606    -0.98571    -0.76282
O     -1.83536    -0.92513     0.11853
H     -2.10304    -0.00129     0.22785
H      2.19987    -1.17908    -1.17905
O      2.05902    -1.70772    -2.00218
H      2.80690    -1.51727    -2.56831
H      0.41920    -1.28340    -2.28947
O     -0.48867    -0.90344    -2.32467
H     -0.85192    -1.07551    -3.19295
H     -0.62828     1.76988    -0.50205
O      0.15278     1.50264    -1.00318
H     -0.16222     0.83152    -1.62326
H      1.46446     0.58212    -0.19311
O      2.04679    -0.11604     0.16310
H      1.53475    -0.55836     0.85436
H     -0.65116    -1.25482     1.26912
O      0.10243    -1.24487     1.91222
H      0.09030    -2.07828     2.38003
H      0.08885     0.47879     2.44018
O      0.00393     1.44805     2.47878
H      0.81849     1.78649     2.09887
