 27
-688.4334575772339
H      1.15661    -1.44161    -2.25511
O      1.76227    -0.67763    -2.12414
H      2.60457    -0.88769    -2.52695
H     -0.86209    -1.85494    -1.65257
O     -0.25240    -2.42115    -2.18615
H     -0.39573    -3.32156    -1.89602
H     -0.28726     1.42494     2.85731
O     -1.18616     1.14672     2.61782
H     -1.33751     1.54368     1.74804
H     -0.57147     1.82805    -1.09464
O     -0.71759     1.74018    -0.13522
H      0.13734     1.45696     0.21345
H     -0.83478    -2.05952     2.64787
O     -0.84306    -1.41984     1.93742
H     -1.05148    -0.53480     2.33048
H      1.70320     0.88272     1.99524
O      1.56194     1.49188     2.74228
H      2.18897     2.20807     2.64301
H      0.72340    -0.85208     0.93195
O      1.37586    -0.20578     0.61810
H      1.54509    -0.36796    -0.32070
H      0.64908     0.69291    -2.56450
O     -0.07015     1.32125    -2.74036
H     -0.72144     0.83163    -3.24531
H     -1.56961     0.09449    -0.53516
O     -1.77231    -0.85254    -0.61966
H     -1.63239    -1.21006     0.26967
