 18
-458.93697885424893
H      0.06695    -0.59518     0.63555
O      0.37594     0.21736     0.19272
H      0.23960     0.95648     0.80588
H      2.26253     0.76015     0.03091
O      2.97094     1.39038     0.24128
H      3.63559     0.88462     0.71079
H     -3.44371    -1.57281    -0.74139
O     -2.59958    -1.99282    -0.91376
H     -2.09913    -1.35621    -1.46725
H      0.60481     3.49651     1.27654
O      0.87496     2.63415     1.59381
H      1.75226     2.46540     1.20847
H     -1.45730    -2.18037     0.41060
O     -0.70938    -2.15299     1.04539
H     -0.27540    -3.00422     0.97821
H     -0.39989    -0.30378    -2.83668
O     -1.02297    -0.13384    -2.12938
H     -0.48604     0.12692    -1.35225
