 27
-688.427371305165
H      3.00034    -0.71502     0.48883
O      3.70606    -0.10842     0.20562
H      4.19857    -0.56780    -0.47488
H     -1.42353    -2.67679    -0.35390
O     -0.63138    -2.62732    -0.93364
H     -0.50681    -3.48644    -1.33496
H      2.44670     1.25129    -0.17540
O      1.53587     1.58250    -0.15228
H      1.24266     1.83988    -1.04729
H      0.37302     2.19187     1.01345
O     -0.34116     2.43111     1.63903
H      0.07495     2.89524     2.36601
H      1.06728    -0.17695     0.29167
O      1.12548    -1.06775     0.68287
H      0.64998    -1.67159     0.09342
H     -1.23626     0.91715     1.72072
O     -1.46130    -0.02527     1.58661
H     -0.62274    -0.48664     1.73357
H     -3.60879    -2.11739     0.37858
O     -2.73344    -2.27998     0.73381
H     -2.44290    -1.43747     1.13509
H     -0.44724     1.41313    -2.14213
O      0.16350     2.11706    -2.45112
H     -0.37409     2.88393    -2.64991
H     -1.49083     0.16067    -0.38421
O     -1.30210     0.10194    -1.33313
H     -0.96026    -0.79287    -1.46064
