  9
-229.4587787920925
H      1.49302    -1.67884    -0.75723
O      1.09435    -1.25993     0.00592
H      1.25650    -0.30585    -0.09760
H     -2.15664    -0.56098    -0.17166
O     -1.48532    -0.23927     0.43030
H     -0.75471    -0.87910     0.38073
H     -0.26012     1.18529     0.08971
O      0.64226     1.50456    -0.08360
H      0.85309     2.08096     0.65183
