  9
-229.4587786450953
H      1.54042    -1.74755     0.28053
O      1.11487    -1.13280    -0.31763
H      0.15935    -1.22011    -0.15470
H     -1.14369     0.43729     0.18796
O     -1.55732    -0.44313     0.17575
H     -2.21461    -0.40500    -0.51996
H      0.83835     2.02674     0.69607
O      0.38770     1.56014    -0.00798
H      0.93441     0.77970    -0.20236
