 27
-688.4297207981621
H      2.50068    -0.73508     3.21716
O      2.70288    -0.54975     2.29929
H      2.03002    -1.02163     1.76665
H     -0.06070    -1.25397    -2.20126
O      0.19209    -2.16260    -1.95840
H      0.70064    -2.52308    -2.68407
H     -2.31245    -1.30013    -0.02873
O     -1.85603    -2.11706     0.26752
H     -1.57351    -2.53418    -0.55252
H     -1.14220     2.09008     0.52529
O     -2.07725     2.34924     0.62162
H     -2.22387     2.50645     1.55574
H      0.48812     0.31996     0.44335
O      0.44565     1.23248     0.10670
H      1.27216     1.66393     0.40195
H      2.86759     1.06499     1.65820
O      2.82740     1.93870     1.21259
H      3.70560     2.11436     0.87275
H     -2.20818     0.26513    -1.54541
O     -2.84825     0.14273    -0.83379
H     -2.77737     0.95203    -0.30017
H     -0.04740     0.91739    -1.53721
O     -0.42054     0.49031    -2.33998
H     -0.32042     1.09679    -3.07319
H     -0.21949    -1.79852     0.88841
O      0.72378    -1.58070     0.71905
H      0.83233    -1.90429    -0.19080
