 27
-688.4299296811832
H      1.66729    -2.54867    -1.32356
O      1.40867    -2.61912    -2.25639
H      2.22577    -2.67238    -2.75218
H      2.32136    -0.87778     0.07333
O      2.24647    -1.83558     0.31807
H      2.84562    -1.99468     1.04693
H     -2.17340     0.64211     1.94709
O     -1.76993    -0.05399     2.50056
H     -2.45141    -0.40259     3.07499
H     -2.00681     2.05443    -0.04802
O     -2.43745     2.02727     0.83602
H     -3.32227     2.37133     0.71061
H      1.35886     0.52233    -1.14760
O      2.00503     0.69926    -0.44827
H      1.50099     1.07564     0.29763
H     -0.33629     2.12178     1.43455
O      0.39011     1.52171     1.62937
H     -0.04018     0.82868     2.14197
H     -0.25925     2.64917    -1.47788
O     -1.06836     2.13490    -1.47302
H     -0.80844     1.22734    -1.73244
H     -0.54590    -0.81738    -1.05024
O     -0.22749    -0.41321    -1.88439
H      0.24958    -1.14061    -2.31781
H      0.38403    -1.81911     0.69572
O     -0.55174    -1.64548     0.51954
H     -0.92784    -1.20692     1.29400
