 27
-688.4350620884212
H      1.44798     1.20574    -0.04094
O      1.70195     1.05079    -0.96167
H      2.30002     0.29868    -0.89925
H      1.41775    -2.37158     0.00163
O      0.54866    -2.73403    -0.22450
H      0.19150    -2.13819    -0.91720
H     -1.23309    -0.43153    -1.24779
O     -0.42854    -0.70323    -1.73296
H      0.25886    -0.04256    -1.56150
H      0.52083     2.24536    -1.88210
O     -0.36303     2.63954    -1.95707
H     -0.85949     2.03499    -2.51495
H      3.26100    -1.34498     1.44558
O      2.64300    -1.04686     0.77865
H      1.94271    -0.54812     1.24074
H     -0.12920    -0.40061     1.72818
O      0.44357     0.37019     1.58518
H     -0.15323     1.10274     1.36558
H     -1.57533    -2.54334     2.17516
O     -1.14844    -1.89085     1.62034
H     -0.56103    -2.36597     0.97258
H     -1.56128     3.19132     0.96938
O     -1.20874     2.38972     0.58326
H     -0.95007     2.58512    -0.34630
H     -2.28392     0.82731     0.32690
O     -2.47960    -0.04588    -0.03686
H     -2.20167    -0.68669     0.63340
