 27
-688.4308058212445
H      0.75468    -2.37225    -2.22858
O      0.39578    -2.06375    -3.08807
H      1.15188    -1.90242    -3.65361
H      0.35642    -2.61515     0.00671
O      1.16542    -2.61771    -0.51809
H      1.72764    -1.97548    -0.05994
H     -1.71481     1.78230     0.89146
O     -1.69474     1.41749     1.80225
H     -2.54081     1.60629     2.20611
H     -1.54243     1.40350    -1.23117
O     -1.67997     2.25210    -0.75820
H     -2.30566     2.76415    -1.27081
H      1.91934     0.28749     0.32761
O      1.94384    -0.37300     1.04573
H      1.82875     0.15218     1.85468
H     -0.04061     1.34548     2.52038
O      0.82709     1.25141     2.94810
H      0.66053     1.07371     3.87400
H      0.68683     2.15171    -0.64929
O      1.26621     1.43284    -0.91481
H      0.69076     0.83268    -1.41169
H     -1.00232    -0.68927    -0.80066
O     -0.99358    -0.19735    -1.64211
H     -0.66729    -0.81930    -2.32012
H      0.19184    -0.92840     1.23609
O     -0.74151    -1.13099     1.03401
H     -1.25181    -0.42620     1.45627
