 27
-688.4297160207531
H      0.44190    -1.09071     1.42719
O      0.90315    -1.23089     0.58860
H      0.29015    -1.60964    -0.06405
H     -1.52919    -1.60376    -1.50237
O     -0.59349    -1.85828    -1.67048
H     -0.59837    -2.73084    -2.06558
H      0.27727     0.86586     2.71612
O     -0.18692     0.01119     2.83398
H     -0.19387    -0.19286     3.76759
H     -2.88736    -0.56661    -0.23803
O     -3.08790    -1.12196    -1.02593
H     -3.62952    -0.58022    -1.60067
H      2.42140    -0.85807    -0.29026
O      3.04548    -0.50327    -0.94844
H      3.60044     0.12018    -0.47780
H      0.69938     3.27651     2.32121
O      0.92353     2.37608     2.08534
H      0.69575     2.26487     1.14239
H      1.85910     0.06147    -2.25425
O      1.01922     0.29183    -2.68417
H      0.46083    -0.48395    -2.52840
H      0.55152     0.55405     0.00689
O      0.17975     1.38166    -0.34441
H      0.37309     1.30849    -1.29925
H     -1.58622     1.00926     0.38877
O     -2.20868     0.50216     0.93238
H     -1.68549     0.22948     1.69805
