 27
-688.4364403341684
H     -1.17744    -2.81908     1.88001
O     -0.73452    -1.99881     1.66845
H     -0.67441    -1.94322     0.68089
H      0.10686    -1.32456    -1.53598
O     -0.63233    -1.60749    -0.97979
H     -1.36804    -1.01682    -1.20174
H      1.00244     1.01566     1.71495
O      0.76612     1.60956     0.98553
H      1.51765     1.43942     0.38199
H     -2.51973     0.50000    -0.02663
O     -2.65472     0.36303    -0.99631
H     -3.57655     0.52184    -1.19473
H     -0.11903     1.95758    -0.75170
O     -0.37277     1.77756    -1.66825
H     -1.26294     1.40005    -1.61123
H      0.79853    -1.27958     2.11219
O      1.63062    -0.77671     2.17372
H      2.05465    -0.98517     3.00483
H      1.53434    -0.11978    -3.45546
O      1.20789    -0.20713    -2.56044
H      0.67641     0.59916    -2.35517
H      2.45226    -0.39518     0.48619
O      2.73181     0.18813    -0.23095
H      2.34425    -0.15640    -1.04550
H     -1.52185    -0.21465     1.83652
O     -1.80990     0.65325     1.52149
H     -0.99321     1.15295     1.35347
