 27
-688.4318904400847
H      1.58247    -0.38545    -1.39074
O      1.80986    -1.21682    -0.95718
H      1.04966    -1.80413    -1.08310
H     -1.08654    -2.70757    -0.20598
O     -0.58217    -2.72887    -1.04786
H     -0.61612    -3.62397    -1.38633
H      3.07834     2.47538     0.53881
O      2.15509     2.24067     0.62570
H      1.84684     1.93900    -0.24489
H     -0.47652     2.77031    -0.27579
O     -0.61596     2.83164     0.67236
H      0.28522     2.85672     1.01570
H      1.73583     0.55413     1.55489
O      1.32691    -0.32110     1.58342
H      1.62003    -0.76033     0.76103
H     -1.27288     1.17788     1.22855
O     -1.29982     0.20666     1.30965
H     -0.36735    -0.06259     1.49840
H     -2.95548    -2.59407     1.45600
O     -2.06605    -2.37363     1.18069
H     -1.94039    -1.41955     1.36407
H     -0.07007     0.87041    -1.64458
O      0.77018     1.39682    -1.69039
H      0.85253     1.71834    -2.58942
H     -1.58082    -0.06339    -0.57993
O     -1.37214    -0.13272    -1.52799
H     -1.15860    -1.06888    -1.66036
