  9
-229.4482254221129
H      0.48966     0.77173    -0.22455
O      0.22584     0.01635     0.30918
H     -0.46466    -0.43545    -0.18549
H     -1.49748    -2.60763    -0.69263
O     -1.86417    -1.77463    -0.38869
H     -1.87085    -1.84463     0.56918
H      2.04621     1.69360     0.53837
O      1.80215     2.26120    -0.19759
H      1.51691     3.08104     0.20954
