 27
-688.4261961360497
H      1.23165    -3.58380    -0.85863
O      0.88317    -3.35470     0.00281
H      1.11616    -2.41135     0.15623
H      0.79822     0.98533    -2.13224
O     -0.13645     0.96229    -2.39974
H     -0.22089     0.27346    -3.05900
H      1.16640     2.96534     0.99732
O      1.67164     3.39301     0.26733
H      1.16845     4.17035     0.02395
H     -2.04757     0.22811     0.15247
O     -1.24203     0.77895     0.13846
H     -1.02320     0.94007    -0.79528
H      0.26923    -0.33280     0.45098
O      1.17119    -0.69886     0.42390
H      1.68270    -0.08047    -0.11796
H      0.70565     1.25946     2.40623
O      0.22378     2.02167     2.07567
H     -0.43599     1.64779     1.45905
H     -0.80803    -3.30598     0.40162
O     -1.73716    -3.24810     0.70880
H     -1.72158    -3.55663     1.61634
H      3.26421     1.35441    -1.46903
O      2.34152     1.29303    -1.22463
H      2.13141     2.10927    -0.70818
H     -2.72280    -1.84677     0.33277
O     -3.25088    -1.04774     0.12192
H     -3.87746    -1.30917    -0.55277
