 18
-458.94451190950946
H      0.24071    -1.72060    -0.92104
O      1.11747    -1.33735    -1.09832
H      0.94062    -0.45386    -1.45360
H     -1.65644    -0.97758     0.10997
O     -1.25728    -1.85433     0.19275
H     -0.75852    -1.80932     1.01443
H      0.83610     1.71324     0.46322
O      0.36930     1.47399     1.27136
H      0.75155     0.61566     1.52740
H     -0.64292     1.19815    -1.35792
O      0.26102     1.27675    -1.70172
H      0.19175     1.63940    -2.58482
H      1.43777    -1.21338     0.57187
O      1.36747    -1.05438     1.54544
H      2.19911    -1.32484     1.93490
H     -1.19893     1.19316     0.65663
O     -1.90690     0.93095     0.02022
H     -2.72996     1.28940     0.34880
