  9
-229.4587751171625
H      1.49813    -1.77988     0.36685
O      1.18863    -1.10965    -0.24250
H      0.21931    -1.18758    -0.25446
H     -1.08858     0.46431     0.14569
O     -1.51405    -0.40096     0.01359
H     -2.11884    -0.51058     0.74771
H      0.69948     2.14517    -0.49256
O      0.48159     1.55926     0.23335
H      1.02812     0.76642     0.09628
