  9
-229.45877408818208
H      1.08196    -1.82662    -0.47111
O      0.86055    -1.25320     0.26307
H      1.18238    -0.36831     0.01663
H     -2.21049     0.03961     0.26276
O     -1.43006     0.29573     0.75454
H     -0.83762    -0.47519     0.73404
H     -0.00853     1.40154     0.11585
O      0.91308     1.51378    -0.17442
H      1.30281     2.12748     0.44927
