  9
-229.45877802035722
H      1.54785    -1.72575     0.51120
O      1.18818    -1.11345    -0.13094
H      0.22221    -1.22786    -0.09815
H     -2.09392    -0.47931    -0.78929
O     -1.54110    -0.49871    -0.00719
H     -1.15562     0.39208     0.05762
H      0.69175     2.04195     0.82204
O      0.35616     1.56110     0.06532
H      0.94646     0.79667    -0.04711
