 21
-535.4290794098547
H     -0.17228     1.29916     1.32051
O      0.54410     1.88655     1.02516
H      0.12101     2.62281     0.58085
H     -2.25297     0.09496     1.25103
O     -1.41584     0.07750     1.77247
H     -1.63167    -0.26209     2.64122
H     -0.32502    -1.08739     0.62503
O     -0.01758    -1.51836    -0.18238
H      0.81661    -1.06381    -0.39218
H     -3.88626     0.69383    -0.34374
O     -3.58536    -0.03982     0.19439
H     -3.24712    -0.70846    -0.44502
H      2.98043     0.55605    -0.64938
O      2.14111     0.14816    -0.41266
H      1.66247     0.82375     0.09405
H      5.15634     0.99328    -1.65081
O      4.64991     1.37542    -0.93179
H      5.21550     1.29951    -0.16085
H     -1.45754    -1.71099    -1.12774
O     -2.37368    -1.77243    -1.48660
H     -2.53895    -2.70337    -1.63671
