 27
-688.4265072188741
H      1.26713    -1.11676    -1.63608
O      1.88361    -0.40623    -1.32287
H      2.71474    -0.53664    -1.78012
H     -0.82574    -1.67274    -1.79441
O     -0.01689    -2.18927    -1.93230
H     -0.02031    -2.77259    -1.15962
H     -0.42204     1.19159     0.12523
O     -0.89315     1.48838     0.91654
H     -1.05900     2.42162     0.71609
H     -0.52353     3.22335    -1.18005
O     -0.90275     3.86248    -0.55263
H     -1.63863     4.27712    -1.00383
H      0.32803    -2.34798     1.09170
O     -0.44421    -2.86258     0.74216
H     -0.60465    -3.58816     1.34350
H      0.11773     1.09706     2.35806
O      0.77919     0.76217     2.99545
H      1.32449     1.51218     3.23567
H      1.40664    -0.62116     2.05888
O      1.63030    -1.32416     1.42134
H      1.86687    -0.86930     0.60097
H     -0.64906     0.96113    -2.19822
O      0.01316     1.54742    -1.82240
H      0.81112     1.00075    -1.70241
H     -1.65495    -1.57769     0.09269
O     -1.97572    -0.85748    -0.47370
H     -2.04467    -0.09463     0.10931
