  9
-229.4499885800283
H      1.49931    -2.58875     0.65031
O      1.15932    -2.22887    -0.16935
H      0.52689    -1.53382     0.07604
H     -0.55407     0.66391     0.14225
O     -0.76649    -0.27485     0.03721
H     -0.92022    -0.40736    -0.90024
H     -0.01032     2.98833    -0.49512
O     -0.32972     2.53733     0.28844
H     -1.12448     3.00969     0.54263
