 27
-688.4309347745382
H      1.56573    -1.01043    -2.19992
O      1.79998    -0.08130    -2.07416
H      2.27725    -0.10304    -1.23024
H      0.20625    -2.39387    -0.83437
O      1.03946    -2.64868    -1.28969
H      0.99384    -3.58478    -1.47643
H      0.26249     0.43598     2.02399
O      0.26666    -0.49403     2.33191
H      0.08808    -0.49358     3.27090
H      0.33648     1.68056     0.19341
O      0.71374     1.85095     1.08653
H      1.65857     1.69378     1.00058
H      1.79078    -0.89797     1.25905
O      2.38884    -0.95285     0.50584
H      2.10820    -1.73864     0.01619
H     -1.22861     2.83750     1.10988
O     -1.97298     2.82855     0.49947
H     -1.53981     2.82899    -0.36377
H     -1.75302    -1.21308     0.09253
O     -1.00427    -1.80879     0.22285
H     -0.56259    -1.48403     1.02027
H      0.34566     0.81134    -1.69518
O     -0.41489     1.28577    -1.29479
H     -1.13444     0.64676    -1.21308
H     -2.63391     1.19667     0.30105
O     -2.81663     0.30641    -0.06440
H     -3.70875     0.32209    -0.40892
