 27
-688.4287290448029
H      1.88195    -0.26631    -0.31792
O      2.05617    -0.34110    -1.26442
H      1.76191    -1.22607    -1.54308
H     -0.00902    -2.45177    -1.48560
O      0.76936    -2.63425    -2.04787
H      0.93247    -3.57515    -1.99058
H      0.99975     1.34981     1.10953
O      0.94889     0.41356     1.34799
H     -0.00374     0.24467     1.44450
H      0.12479     2.31106    -0.71003
O      0.30927     2.90387     0.06122
H      0.95295     3.54792    -0.23318
H      1.34987    -1.36101     1.67901
O      1.25176    -2.31832     1.55446
H      2.06521    -2.60060     1.13368
H     -1.38235     2.98780     0.63917
O     -2.30528     2.73283     0.82196
H     -2.81993     3.04362     0.07651
H     -1.47908    -1.29126     0.32771
O     -0.99270    -2.00436    -0.10183
H     -0.31581    -2.27309     0.54159
H      0.71547     0.61804    -1.79530
O     -0.15326     1.08523    -1.84444
H     -0.81525     0.40104    -1.71794
H     -2.10127     1.07131     1.19417
O     -1.86402     0.15878     1.46894
H     -2.27409     0.01748     2.32385
