 18
-458.9358402139378
H      1.19100     0.68828    -0.15932
O      1.14707    -0.25249    -0.40570
H      0.40108    -0.54221     0.14212
H     -1.88276    -0.31388     0.23315
O     -1.32744    -0.14829     1.02498
H     -1.68491    -0.67164     1.74235
H     -0.20323     0.28932    -3.31107
O     -0.35107    -0.49249    -2.77615
H      0.29815    -0.43823    -2.04797
H     -1.89075    -0.64604    -1.91563
O     -2.63457    -0.71223    -1.27910
H     -3.08195    -1.53558    -1.47660
H      2.32105    -0.43985     1.32225
O      2.44261    -0.07167     2.20803
H      3.38703     0.06560     2.29248
H      1.21952     1.40804     1.88214
O      0.63741     1.89582     1.28393
H     -0.19816     1.41268     1.33415
