 27
-688.4220895487719
H      1.26999    -1.86355    -1.27963
O      1.81913    -1.19087    -0.83979
H      1.65351    -0.38566    -1.34609
H     -0.80325    -2.53784    -1.97932
O      0.09602    -2.90727    -2.06659
H      0.03352    -3.83261    -1.82903
H     -0.65348    -0.25513     2.73193
O     -1.55682     0.07304     2.88087
H     -1.45155     0.83051     3.45733
H     -2.07794    -1.04703    -0.96617
O     -2.32929    -1.70235    -1.64457
H     -3.07759    -2.18220    -1.28718
H      0.26800     0.96311    -3.04203
O      0.41949     0.98212    -2.09814
H     -0.36806     0.58752    -1.69311
H      1.40050    -0.79074     0.83483
O      0.92423    -0.39536     1.59229
H      1.39717     0.41858     1.84659
H      0.46743     2.40808    -0.84096
O      0.17457     2.84407    -0.02907
H     -0.63638     2.37251     0.18516
H      2.65565     2.58530     2.00879
O      1.79620     2.16758     2.06064
H      1.26593     2.51205     1.30960
H     -0.42655    -0.06187     0.51033
O     -1.29671     0.19422     0.12303
H     -1.83332     0.22784     0.93082
