 27
-688.442132874237
H      1.43119    -2.53131    -2.36534
O      1.08745    -1.84666    -1.79347
H      0.20463    -2.14567    -1.45613
H     -1.12065    -2.13136     0.27536
O     -1.29274    -2.19533    -0.67689
H     -1.72105    -1.35661    -0.90999
H      2.00508     0.30381     0.40029
O      1.90861    -0.63488     0.61353
H      1.81548    -1.08165    -0.24283
H      1.23182     1.67115    -1.15647
O      1.74367     2.00562    -0.37379
H      2.35155     2.66768    -0.70067
H      0.96814     1.71492     2.61449
O      0.36438     2.17405     2.02948
H      0.81056     2.19582     1.16722
H     -1.26314     1.40244     1.86959
O     -1.95177     0.74928     1.64885
H     -1.54879    -0.10215     1.87589
H     -0.05796    -2.10428     2.59240
O     -0.29948    -1.51924     1.87678
H      0.53682    -1.16398     1.49398
H      0.72262    -0.09856    -2.29675
O      0.37435     0.80594    -2.29587
H     -0.53365     0.72748    -1.95931
H     -2.08777     0.67733    -0.01603
O     -2.11255     0.48304    -0.99131
H     -2.93933     0.83835    -1.31789
