  9
-229.4499846111039
H      0.71996     0.40588     0.34397
O      0.49051    -0.46994     0.68662
H      1.05695    -1.09115     0.22504
H     -2.40909    -1.93549     0.32752
O     -1.64066    -1.93667    -0.24376
H     -1.00756    -1.31377     0.14949
H      1.68900     2.13591    -1.13883
O      1.32678     2.09641    -0.25207
H      1.97360     2.53415     0.30391
