  9
-229.4481495348084
H      0.55395     0.61032     0.11833
O      0.28164    -0.23821    -0.24402
H     -0.56550    -0.44329     0.16272
H     -1.95897    -2.57184     0.57652
O     -2.01982    -1.79308     0.02072
H     -1.42830    -1.96937    -0.71571
H      1.53961     2.25642    -0.83847
O      1.52172     2.29606     0.12099
H      2.43125     2.14798     0.38855
