  9
-229.4587783878502
H      1.57082    -1.42755    -0.25993
O      1.19274    -0.80350     0.35984
H      0.23806    -0.98807     0.37348
H     -1.23879     0.51311    -0.03477
O     -1.57144    -0.39138     0.10133
H     -2.17249    -0.56220    -0.62408
H      0.82961     1.04039     0.01657
O      0.20056     1.76824    -0.12773
H      0.35386     2.38250     0.59117
