 27
-688.4314628619791
H      2.35657     0.36236    -1.44238
O      2.91408     0.18254    -0.66184
H      3.56206    -0.47626    -0.91513
H     -1.43246    -2.66172     0.02913
O     -0.62586    -2.58978    -0.50452
H      0.03764    -2.25884     0.11476
H      2.27873     1.95825     0.06477
O      1.46466     2.47707     0.07712
H      1.03684     2.21138    -0.75034
H      0.64378     2.08071     1.52250
O      0.22245     1.69573     2.32666
H      0.54218     2.19245     3.07837
H      0.75825    -0.11696     1.80768
O      0.87036    -0.75458     1.08674
H      1.61950    -0.44185     0.55670
H     -1.41434     1.06081     1.41114
O     -1.66653     0.42477     0.73165
H     -0.84084    -0.07590     0.60702
H     -3.80942    -2.15646     0.76450
O     -2.88726    -2.08152     1.01154
H     -2.67904    -1.13170     1.02619
H      0.14298     0.49947    -2.22878
O      0.94611     1.08409    -2.31675
H      0.93143     1.42839    -3.20922
H     -1.70033     0.06233    -1.28253
O     -1.22031    -0.38571    -1.99318
H     -1.00245    -1.26672    -1.61885
