 24
-611.9398479116237
H     -1.06016     1.79581     0.82995
O     -1.54043     1.55778     0.02374
H     -1.70430     0.60519     0.11365
H      0.39917    -0.09686    -2.75600
O      0.52637    -0.99180    -3.11327
H     -0.17500    -1.14237    -3.74632
H     -0.60178    -1.59912    -0.13589
O     -1.47475    -1.26247     0.20979
H     -2.14521    -1.87226    -0.09541
H      1.39441    -1.30737    -0.19414
O      0.91186    -2.05446    -0.59298
H      0.92076    -1.88619    -1.55029
H     -0.46808     1.60568    -1.26143
O      0.27164     1.50906    -1.91413
H      0.38918     2.35752    -2.34093
H      1.47802     0.85789    -0.51568
O      1.70736     0.42122     0.31481
H      1.23113     0.90658     1.00132
H     -0.15491     0.78857     2.67635
O      0.08252     1.65693     2.28215
H      0.37302     2.23202     2.98891
H     -0.99411    -1.06642     1.91838
O     -0.54359    -0.90261     2.76846
H      0.20932    -1.49628     2.77988
