 27
-688.4247740483876
H      0.34898     0.29098    -2.48606
O     -0.47054     0.01939    -2.91535
H     -1.07755     0.77791    -2.85369
H      2.17674    -0.64611    -0.29745
O      1.36768    -0.27099    -0.69150
H      0.66382    -0.92618    -0.57048
H     -1.34808     0.26056     2.54869
O     -0.43936     0.43617     2.80205
H     -0.14273     1.11566     2.17484
H     -3.27222     2.01730    -2.79066
O     -2.40362     1.90830    -2.40227
H     -2.53944     1.52597    -1.51050
H      2.82517    -1.42003     1.52315
O      3.42077    -1.35844     0.74801
H      3.80554    -2.22684     0.62779
H     -0.97720    -1.22133    -1.82213
O     -1.07395    -1.66895    -0.94789
H     -1.27347    -2.59104    -1.10333
H      1.71661    -1.57588     3.63888
O      1.52093    -1.45127     2.70968
H      0.79740    -0.79353     2.68061
H      0.83561     1.12678     0.09813
O      0.31480     1.83077     0.55264
H      0.68850     2.67317     0.29653
H     -1.42519     1.21829     0.24000
O     -2.23440     0.72144     0.05367
H     -1.94310    -0.18297    -0.12622
