 27
-688.4330187538426
H      1.68969    -3.01988     2.17733
O      1.25684    -2.71622     1.37958
H      0.68085    -1.97417     1.64276
H     -1.09576    -1.32999     0.11427
O     -1.58921    -1.34520    -0.71761
H     -2.42502    -0.88911    -0.52797
H      3.13624    -1.93476    -1.10318
O      2.43851    -1.42530    -0.69140
H      2.02910    -1.98737     0.00040
H      0.45128     1.50601    -1.48121
O      0.50694     2.39084    -1.01635
H      0.69373     3.04153    -1.69139
H     -1.55193     2.76474     1.44832
O     -1.52248     2.05673     0.80472
H     -0.81320     2.26120     0.16642
H     -0.74293     0.33500     1.47072
O     -0.05939    -0.34655     1.52736
H      0.79109     0.11285     1.34632
H      1.83547     1.62774     0.18210
O      2.19982     0.93351     0.74738
H      2.53171     0.24638     0.15167
H      1.15509    -0.55750    -1.72707
O      0.40651    -0.02713    -2.04311
H     -0.39261    -0.47804    -1.69641
H     -4.12966     0.86608    -0.72477
O     -3.61718     0.41862    -0.05128
H     -2.95680     1.05911     0.25787
