 27
-688.4281506843195
H     -1.41344    -0.77366    -2.38695
O     -1.27597    -1.71319    -2.16676
H     -2.08223    -2.18085    -2.38431
H      1.93675     0.22040    -0.88450
O      1.85676     0.50957     0.04275
H      2.32859    -0.11347     0.62135
H     -1.25885    -0.67695     3.47311
O     -0.46656    -0.46497     2.97968
H     -0.55269    -0.88422     2.10268
H     -1.36930     1.69510    -3.02516
O     -1.15611     0.98457    -2.41895
H     -1.38700     1.31242    -1.51915
H      0.65613     0.31070    -2.63922
O      1.37417    -0.32934    -2.52366
H      0.91125    -1.17221    -2.50173
H     -0.62602    -1.53604    -0.42792
O     -0.21511    -1.28814     0.41196
H      0.39742    -0.54718     0.22184
H      1.70914    -1.02955     2.72637
O      2.21209    -1.42993     2.01044
H      1.55097    -1.96682     1.55986
H      0.85531     1.66624     1.12663
O      0.11190     1.97509     1.66810
H     -0.02653     1.27857     2.32429
H     -1.19625     2.02561     0.60108
O     -1.93013     1.96186    -0.06075
H     -2.74181     2.07168     0.43186
