 27
-688.4273760458248
H      0.90007    -3.74783    -0.37344
O      0.32839    -3.16930     0.13111
H      0.77209    -2.29669     0.19615
H      0.22605     3.01398    -1.19472
O     -0.26241     2.51502    -1.87239
H     -0.83761     3.12971    -2.32826
H      1.09280     2.71587     0.91015
O      1.39391     3.32290     0.18750
H      1.77276     4.09656     0.60214
H     -1.71362    -0.25539    -0.27147
O     -1.20553     0.54454    -0.03629
H     -1.11357     1.11567    -0.81228
H      0.37740    -0.23966     0.07523
O      1.27145    -0.62216     0.18422
H      1.83333    -0.09817    -0.41904
H      1.02543     0.71016     1.76661
O      0.49187     1.50181     1.92398
H     -0.35332     1.28034     1.50017
H     -1.12794    -3.70777     1.17666
O     -2.03744    -3.79605     1.50770
H     -2.00217    -3.57801     2.43960
H      1.55896     1.42053    -2.03136
O      2.35536     1.25296    -1.51487
H      2.39938     2.03275    -0.94647
H     -2.50909    -2.48563     0.15963
O     -2.19874    -1.94100    -0.58074
H     -1.36966    -2.38126    -0.80566
