 27
-688.4370828221803
H      0.35954    -2.74027    -0.01002
O      1.10169    -2.72029     0.61009
H      0.75384    -2.21490     1.35754
H     -0.87389    -1.16269     0.27535
O     -1.14720    -1.51127    -0.59675
H     -2.04569    -1.16588    -0.73325
H      3.69185    -1.43622    -0.79405
O      2.84313    -1.06550    -0.55445
H      2.31674    -1.77516    -0.11294
H      0.33119     1.50912    -1.20124
O      0.15607     2.32236    -0.65240
H      0.30696     3.07401    -1.22445
H     -2.09514     2.47017     1.58841
O     -1.90758     1.73294     1.00925
H     -1.17280     2.00089     0.42234
H     -0.90312     0.20293     1.83060
O     -0.19679    -0.45303     1.77135
H      0.63277     0.06308     1.67628
H      1.55781     1.67399     0.56021
O      1.97820     1.01028     1.12188
H      2.48125     0.43233     0.52914
H      1.55959    -0.27267    -1.60777
O      0.71848     0.09023    -1.92615
H      0.03464    -0.54732    -1.64879
H     -3.66044     0.60748    -1.38260
O     -3.42811     0.07806    -0.61956
H     -3.00354     0.68683     0.00674
