 15
-382.4486822921849
H     -0.74360     1.17408    -1.30267
O     -1.02400     1.90298    -0.70929
H     -0.53064     2.67386    -0.99056
H      0.58669    -2.82244    -0.53583
O      0.98213    -1.95608    -0.63748
H      1.01805    -1.57734     0.26715
H     -1.87049     0.84136     2.08644
O     -0.95809     1.00183     1.84348
H     -0.98706     1.35423     0.92753
H      0.24747    -0.80923    -1.68891
O     -0.14687    -0.12649    -2.27481
H      0.46195    -0.03569    -3.00753
H      0.25869    -0.22556     1.89255
O      0.97298    -0.89743     1.85314
H      1.73153    -0.49588     2.27748
