  9
-229.45877923308407
H      1.95416    -1.52794     0.40264
O      1.61055    -0.91935    -0.25169
H      0.67309    -1.15192    -0.36441
H     -1.84703    -0.85560     0.37895
O     -1.18300    -0.64990    -0.27940
H     -0.91292     0.26939    -0.10831
H      1.11976     0.90106     0.05624
O      0.44295     1.59541     0.13443
H      0.63773     2.21949    -0.56574
