 27
-688.4318786068101
H      2.31855    -0.80876    -2.67457
O      1.71393    -0.83756    -1.93145
H      1.38924    -1.76066    -1.84387
H      0.00868    -2.84856    -0.86632
O      0.67278    -3.27032    -1.45631
H      1.07191    -3.98605    -0.96148
H      0.28274     0.61184     1.91236
O      0.26633    -0.29000     2.28248
H     -0.24168    -0.25005     3.09221
H      0.36638     1.88638    -0.19296
O      0.68041     2.02400     0.73273
H      1.54573     1.56862     0.75324
H      2.30547    -0.29977    -0.31501
O      2.54549     0.04102     0.56096
H      2.06042    -0.50436     1.18782
H     -0.96444     2.48948     1.28783
O     -1.92965     2.46480     1.44671
H     -2.23962     3.36724     1.36980
H     -1.55181    -1.09110    -0.10591
O     -0.84901    -1.71507     0.11962
H     -0.38153    -1.30121     0.85851
H      0.32410     0.40769    -1.83519
O     -0.25053     1.16530    -1.64403
H     -1.12457     0.81731    -1.42017
H     -2.46275     1.15697     0.37789
O     -2.60327     0.45002    -0.28488
H     -3.51372     0.49115    -0.57584
