  9
-229.4586076873517
H      1.83949    -1.32165     0.46275
O      1.28497    -1.06172    -0.27327
H      1.31347    -0.09194    -0.27576
H     -1.99645    -0.78165    -0.68256
O     -1.45051    -0.54019     0.06665
H     -0.61623    -1.02706    -0.05308
H     -0.46616     1.09453     0.12796
O      0.36761     1.58560     0.02771
H      0.14128     2.51536     0.00791
