 27
-688.433887544044
H      0.97201    -1.16096    -3.06789
O      0.57111    -0.80708    -2.27405
H      0.71192     0.18206    -2.30119
H      1.25112    -1.21336    -0.54841
O      1.41346    -1.09480     0.40306
H      0.88356    -1.76761     0.84896
H     -1.04987    -0.89172     3.93703
O     -1.44931    -0.81094     3.07086
H     -1.19082    -1.59959     2.56172
H     -0.93845     2.33065    -0.01468
O     -0.83487     3.06144    -0.64882
H     -1.71625     3.36146    -0.86804
H      0.40931     2.34487    -1.78815
O      1.10655     1.76973    -2.14888
H      1.77570     1.72800    -1.44200
H     -1.01800    -1.24168    -1.48523
O     -1.72506    -1.36046    -0.82718
H     -1.76600    -0.50846    -0.36623
H     -0.91765    -3.69042     1.19744
O     -0.73370    -2.75149     1.19421
H     -1.19191    -2.36195     0.40172
H      2.37545     0.45101     0.36572
O      2.60236     1.37131     0.15229
H      2.27027     1.89760     0.88113
H     -1.14154     0.41606     1.76614
O     -0.80948     0.77861     0.92729
H      0.05504     0.36802     0.77907
