 27
-688.4272077707801
H      2.17790     0.69723     0.07050
O      1.44012     0.27702    -0.41294
H      0.62108     0.68533    -0.08975
H      1.46152    -1.44802     0.04568
O      1.18125    -2.36641     0.23667
H      1.94415    -2.79963     0.62283
H     -0.19110    -2.01767    -1.42591
O     -0.42383    -1.23949    -1.94286
H      0.35886    -0.67226    -1.86694
H     -1.40169    -0.14930    -0.52778
O     -1.33759     0.58913     0.09539
H     -1.92832     1.26380    -0.28350
H      2.89759     0.89382     2.01754
O      3.36475     1.27228     1.24339
H      3.50943     2.19933     1.43506
H      1.58974     0.49852     4.05942
O      1.81009     0.16386     3.19036
H      0.98523    -0.25028     2.84025
H     -0.87777    -0.37395     1.59654
O     -0.40311    -0.97762     2.18871
H     -0.07173    -1.68292     1.61404
H     -2.20018     0.25612    -4.17153
O     -2.51716    -0.00729    -3.30644
H     -1.80106    -0.53378    -2.91177
H     -2.93668     1.30271    -2.17198
O     -3.06826     1.97152    -1.46886
H     -4.01466     2.04899    -1.34011
