 27
-688.4376214934197
H      2.02481    -3.73693    -0.70008
O      1.78685    -2.82685    -0.87696
H      0.84189    -2.71525    -0.62388
H     -0.72505    -1.64171     0.66814
O     -0.72512    -2.28754    -0.05207
H     -1.25032    -1.87113    -0.75153
H      1.49190    -0.76314     1.03887
O      2.12210    -0.47215     0.36750
H      2.28080    -1.28620    -0.14415
H      0.05263     2.13013    -0.95803
O     -0.24019     2.85231    -0.34761
H     -0.19095     3.67595    -0.83185
H     -1.80690     0.54511     1.08515
O     -2.27944     1.04195     0.40400
H     -1.74988     1.84036     0.26342
H     -0.47461    -0.62555     2.88846
O     -0.36642    -0.31938     1.98621
H      0.18687     0.50558     2.02338
H      0.75644     2.35118     1.10127
O      1.22418     1.77821     1.72919
H      1.89116     1.31514     1.20092
H      1.16194     0.26257    -1.02519
O      0.55085     0.67536    -1.65790
H     -0.14660     0.03657    -1.86138
H     -2.77796    -0.61613    -2.32177
O     -2.02992    -0.56543    -1.72786
H     -2.25609     0.06704    -1.00497
