 27
-688.4280942006453
H      1.10824    -2.08617    -1.93480
O      1.03885    -1.53756    -2.75108
H      1.10855    -2.13619    -3.49481
H      0.14138    -2.70151    -0.04723
O      1.02714    -2.86684    -0.39868
H      1.59171    -2.37963     0.21669
H     -2.62722     1.19182     1.02290
O     -2.75750     0.55713     1.75566
H     -3.69743     0.37505     1.78553
H     -1.88584     1.46381    -1.02794
O     -2.24201     2.14109    -0.42691
H     -1.55390     2.80659    -0.37065
H      1.87314    -0.10779     0.29242
O      1.84898    -0.62503     1.10905
H      1.94267     0.06021     1.78948
H      1.34247     2.03650     1.27568
O      1.55052     1.89868     2.21285
H      0.74097     2.07745     2.69245
H      1.80780     1.83864    -1.30581
O      1.18510     1.68487    -0.59397
H      0.43107     1.18629    -0.97153
H     -0.95356    -0.54881    -0.85000
O     -0.80706     0.07685    -1.58610
H     -0.24420    -0.40005    -2.22448
H     -0.05194    -1.03369     1.23946
O     -0.90467    -1.30270     0.85759
H     -1.59637    -0.77485     1.29661
