 18
-458.94424253714044
H      2.05632    -0.63872     0.17064
O      2.63630     0.14876     0.14050
H      2.84242     0.35118     1.05481
H     -1.23440     0.66504     1.44283
O     -0.71451     1.46909     1.59926
H     -1.28861     2.09013     2.04744
H     -1.06852    -0.53780    -2.69596
O     -0.97053    -0.47634    -1.74650
H     -0.41937     0.33505    -1.55785
H      0.08656     1.74973    -0.05577
O      0.49830     1.57417    -0.91763
H      1.38021     1.22646    -0.68954
H      0.29567    -1.69605    -0.72807
O      0.73584    -1.83934     0.12003
H      0.04173    -1.62736     0.75270
H     -2.93912    -1.12561     0.85969
O     -2.03031    -0.84725     0.74874
H     -1.86428    -0.77406    -0.20894
