 27
-688.4327315580631
H      0.70762    -1.49874    -2.74190
O      0.87281    -0.73194    -3.33570
H      1.75033    -0.85895    -3.69793
H     -0.44042    -2.28624    -1.01124
O      0.35074    -2.62305    -1.45261
H      0.99194    -2.63548    -0.72920
H     -2.31165     1.67717     0.79286
O     -2.30667     1.11179     1.60184
H     -3.18753     1.11480     1.97478
H     -1.16510     2.02508    -0.95980
O     -1.97550     2.49983    -0.66881
H     -2.53494     2.56672    -1.44325
H      1.92940    -1.12600     0.97135
O      1.58795    -2.05449     1.02618
H      1.98315    -2.45375     1.79952
H     -0.70329     1.28161     2.29665
O      0.19824     1.41471     2.63494
H      0.26561     2.35355     2.81581
H      1.51978     0.87315     1.60147
O      2.10617     0.56353     0.88524
H      1.68575     0.89677     0.07798
H     -0.25712     0.12948    -0.73646
O      0.12807     0.88364    -1.22009
H      0.40918     0.52173    -2.08090
H     -0.25544    -1.48576     0.98038
O     -0.98182    -1.12137     0.44804
H     -1.50555    -0.53320     1.00599
