  9
-229.44998376586997
H      1.06740    -2.93645     0.18402
O      0.85379    -2.32905    -0.52472
H      0.34219    -1.60775    -0.12328
H     -0.51148     0.65890     0.28208
O     -0.82103    -0.24645     0.13459
H     -1.10723    -0.28090    -0.78022
H     -0.80256     3.02043     0.89074
O     -0.09315     2.48837     0.52621
H      0.20036     2.96237    -0.25384
