 27
-688.4276865774099
H      3.68870    -0.09944     0.80185
O      2.73661    -0.19229     0.83384
H      2.53570    -1.05844     1.25696
H      1.77569    -0.34250    -0.67656
O      1.10069    -0.54126    -1.34977
H      0.96414    -1.49158    -1.29192
H     -0.03579     0.97304     1.40073
O      0.67331     1.62611     1.33479
H      1.48113     1.09688     1.33194
H     -1.30146     2.30010    -1.70390
O     -2.25909     2.29033    -1.93817
H     -2.30391     2.33766    -2.89320
H     -0.63442    -2.09445     0.33702
O     -0.14306    -2.93308     0.18809
H     -0.79052    -3.62485     0.05367
H      1.63847    -2.61634     2.74551
O      1.97373    -2.54966     1.85099
H      1.23674    -2.81208     1.26659
H     -2.04787    -0.09327     0.22529
O     -1.14952    -0.44363     0.38908
H     -0.60175    -0.20259    -0.37528
H      0.52236     2.18862    -0.36806
O      0.37120     2.21046    -1.33353
H      0.74933     1.38170    -1.65293
H     -3.21346     1.29694    -0.85974
O     -3.58732     0.70319    -0.17424
H     -4.04054     1.27557     0.44642
