 27
-688.4262798509551
H      0.69173     0.86261     1.67324
O      0.30248     1.37732     0.95145
H      0.95134     1.35503     0.22845
H      2.09798    -0.56430    -0.74269
O      2.06731    -1.40113    -0.25648
H      1.37512    -1.91726    -0.70283
H     -0.25737    -0.98174     2.77478
O     -1.21370    -0.95487     2.91454
H     -1.58229    -1.50057     2.21909
H     -1.03587     2.31912     0.25039
O     -1.68459     2.67442    -0.38507
H     -1.74908     3.61402    -0.21623
H     -0.34832    -2.18878    -2.41871
O     -0.18231    -2.42653    -1.50586
H     -0.85343    -1.95700    -0.99273
H      1.75991    -1.07300     1.35139
O      1.52250    -0.72666     2.25272
H      2.22785    -0.97718     2.84870
H      0.79328     1.01899    -1.98696
O      1.65837     1.06156    -1.51140
H      2.20402     1.70814    -1.95774
H     -1.21575     1.74092    -1.92191
O     -0.86674     0.97033    -2.40188
H     -1.21076     0.23282    -1.87892
H     -1.05495    -0.05742     0.44686
O     -1.70646    -0.50522    -0.12024
H     -2.50613     0.02554    -0.06552
