 18
-458.9436589950058
H      0.61898    -1.18495    -1.36217
O      0.14839    -0.59769    -1.99484
H      0.56021    -0.71308    -2.85071
H     -1.44613    -0.31878    -1.28967
O     -2.21896    -0.09797    -0.73910
H     -2.70118     0.57799    -1.21609
H      1.44755    -1.23581     0.64825
O      1.33836    -1.95269    -0.02636
H      1.74981    -2.74037     0.32631
H      0.45860     1.13024    -1.15342
O      0.66527     1.83586    -0.52534
H     -0.11081     1.89375     0.04098
H      0.56104     0.33221     1.88279
O      1.47168     0.18931     1.58152
H      1.55865     0.86215     0.88657
H     -1.65945     0.36068     0.83800
O     -1.27510     0.75197     1.64836
H     -1.92984     0.64978     2.33832
