 27
-688.4307186151556
H      0.68808    -0.18060     3.37724
O      0.54069     0.27750     2.55087
H     -0.41812     0.20474     2.32923
H     -0.87251    -3.25509    -1.03381
O     -1.81349    -3.09551    -1.25690
H     -2.33123    -3.67386    -0.69523
H     -1.85673     0.23675     0.62679
O     -1.90800     0.60704     1.52937
H     -1.86868     1.56466     1.43501
H      0.44173     2.05325     2.01474
O      0.07974     2.81450     1.53464
H      0.80394     3.42831     1.40375
H      2.58177     1.49931    -2.39695
O      2.27634     1.45423    -1.49072
H      1.36053     1.81711    -1.48313
H      1.26992    -0.31971     0.88769
O      1.37099    -0.65995    -0.01207
H      1.84508     0.01656    -0.53316
H      1.46760    -3.53168    -1.34958
O      0.85689    -3.27562    -0.65681
H      1.13035    -2.38251    -0.37132
H     -0.89165     1.42824    -1.22161
O     -0.29660     2.18583    -1.12072
H     -0.28061     2.39195    -0.17059
H     -0.39897    -0.61491    -0.78812
O     -1.33993    -0.43815    -0.95496
H     -1.72122    -1.31156    -1.16562
