 27
-688.4421365124177
H      2.03297    -2.77013    -1.15077
O      1.61366    -1.99775    -0.77384
H      0.63940    -2.08418    -0.94699
H     -1.39533    -1.59396    -0.42260
O     -0.98593    -1.88016    -1.25593
H     -1.07407    -1.12263    -1.85428
H      2.96408    -0.18359     1.34798
O      2.33644    -0.84387     1.64391
H      2.07353    -1.32479     0.84212
H      0.92042     3.13684     0.67486
O      0.49505     2.28137     0.67751
H      0.92387     1.73795    -0.02463
H     -2.23077     0.79468     0.26180
O     -2.08662     1.61093    -0.24239
H     -1.32144     2.03272     0.17849
H     -2.53563    -1.23769     1.76334
O     -1.89808    -0.80561     1.19479
H     -1.16942    -0.47659     1.78680
H      0.16190     1.12893     2.13795
O      0.04501     0.30259     2.63028
H      0.87795    -0.18078     2.48127
H      1.69665    -0.15572    -1.17854
O      1.44074     0.76365    -1.33677
H      0.65674     0.71457    -1.90641
H     -1.51438     0.88698    -3.33056
O     -1.11936     0.61573    -2.50322
H     -1.58780     1.09126    -1.77029
