  9
-229.4587710747395
H      1.43372    -1.56532    -0.89992
O      1.20649    -1.10874    -0.08902
H      0.24383    -1.21366     0.00297
H     -1.13392     0.42496    -0.01973
O     -1.51203    -0.46574     0.07697
H     -2.08500    -0.42506     0.84271
H      0.97671     0.79216    -0.09812
O      0.40202     1.57761    -0.09385
H      0.76753     2.16817     0.56520
