 27
-688.4338420484105
H      2.61147    -0.89524    -1.18191
O      2.52157    -0.18681    -1.83309
H      1.90195    -0.56056    -2.46820
H      0.77952    -2.32419    -1.54168
O      0.29321    -2.02841    -2.33246
H     -0.22114    -2.77215    -2.64842
H     -2.56836    -1.30545     2.08827
O     -1.93468    -0.76374     1.61945
H     -2.33825     0.12789     1.47286
H      0.06007     1.13148    -0.75238
O      0.90282     1.50470    -0.43796
H      1.60005     1.07433    -0.97005
H     -0.13377    -0.51568     1.78748
O      0.82286    -0.45129     1.63653
H      0.96929     0.37532     1.14761
H      0.25271     2.62139     0.80143
O     -0.36607     2.98760     1.46022
H      0.10735     3.04728     2.29023
H      1.38851    -1.63381     0.64015
O      1.75981    -2.26537    -0.03330
H      2.30326    -2.89482     0.43909
H     -0.78456    -0.71849    -1.61744
O     -1.30485    -0.13378    -1.04638
H     -1.48182    -0.64053    -0.23930
H     -1.92780     2.24112     1.03306
O     -2.62734     1.62894     0.74596
H     -2.39459     1.38911    -0.16036
