 27
-688.4320447503953
H      1.47226    -1.70929    -1.61718
O      1.84200    -0.81031    -1.76686
H      2.25513    -0.81563    -2.63160
H     -0.16706    -2.79917    -0.85929
O      0.61056    -3.16239    -1.34416
H      0.91240    -3.91708    -0.83902
H      0.36868     0.50861     1.46813
O      0.41420    -0.40443     1.81707
H      0.21929    -0.34919     2.75234
H      0.33104     1.94044    -0.21253
O      0.66533     2.13781     0.69359
H      1.59198     1.82758     0.69206
H      2.28132    -0.16247     1.11226
O      2.79476     0.42955     0.54940
H      2.65482     0.05905    -0.33442
H     -0.97216     2.42072     1.37127
O     -1.92571     2.33803     1.57288
H     -2.27859     3.22794     1.56185
H     -1.93483    -1.28108    -0.00816
O     -1.26208    -1.95435     0.15327
H     -0.65419    -1.52648     0.77538
H      0.34420     0.30034    -1.66781
O     -0.30752     1.00661    -1.53119
H     -1.13993     0.59707    -1.25581
H     -2.52909     1.08399     0.49474
O     -2.73774     0.39409    -0.16902
H     -3.59575     0.59295    -0.54325
