 27
-688.4280073253001
H      0.21715    -2.88306    -1.01166
O      0.64024    -3.00072    -1.88086
H      0.21457    -3.74984    -2.29720
H      2.49832    -0.56571     0.22195
O      2.42498    -1.48675     0.56104
H      2.75056    -2.05779    -0.14011
H     -2.12232     0.42948     1.70639
O     -1.73955    -0.29472     2.23215
H     -2.39165    -0.57249     2.87504
H     -1.89389     2.03852    -0.21885
O     -2.31291     1.91350     0.66430
H     -2.95084     2.61860     0.77205
H      1.54109     0.69997    -1.12004
O      2.14773     1.01951    -0.43804
H      1.59222     1.33866     0.29641
H      0.07070     0.77131     2.02876
O      0.38499     1.58353     1.61733
H     -0.43096     2.05445     1.41512
H     -0.09840     2.78765    -1.48664
O     -0.89833     2.27066    -1.60332
H     -0.59372     1.37723    -1.85251
H     -0.37699    -0.60227    -1.01245
O     -0.00476    -0.28892    -1.85426
H      0.31541    -1.10790    -2.25967
H      0.70198    -1.74110     0.70166
O     -0.24285    -1.88117     0.47428
H     -0.77759    -1.46685     1.16432
