  9
-229.458769788514
H      1.73868    -1.60196    -0.16059
O      1.34237    -0.95062     0.41826
H      0.40354    -1.19410     0.48854
H     -2.06265    -1.02430    -0.44613
O     -1.45125    -0.74606     0.23613
H     -1.18665     0.16127     0.00373
H      0.84120     0.82528    -0.07730
O      0.15877     1.49297    -0.26375
H      0.29494     2.18380     0.38571
