 30
-764.9129311468581
H     -2.40285     2.25001     1.39284
O     -1.85845     1.60405     0.94160
H     -2.47044     0.89789     0.62371
H     -0.62106     1.94691    -0.25542
O      0.13001     2.16815    -0.84529
H     -0.22964     2.56966    -1.63653
H     -0.16634    -3.04973    -2.09600
O     -1.10657    -3.33410    -2.03398
H     -1.45818    -3.26508    -2.92167
H      1.62666    -1.64340    -1.90432
O      1.46014    -2.54549    -2.26877
H      2.19622    -3.08949    -1.98749
H      2.96753     1.31364     1.24718
O      2.90319     0.35191     1.30711
H      2.10442     0.25068     1.85027
H     -0.34429     1.13187     2.03219
O      0.50550     1.07686     2.48144
H      0.92204     1.92886     2.30781
H      2.45453     3.79355     0.78260
O      1.94286     3.02057     1.01856
H      1.39763     2.78330     0.24744
H      1.25274     0.60765    -1.16083
O      1.90103    -0.10443    -1.20628
H      2.36264    -0.07660    -0.34412
H     -3.03436    -1.14631     0.14194
O     -3.53154    -0.29617     0.06179
H     -4.43716    -0.50603     0.28829
O     -2.12228    -2.57461     0.35620
H     -1.80579    -2.89834    -0.51502
H     -1.33757    -2.51953     0.90383
