 27
-688.4418439144911
H      1.90318    -1.68758    -2.15006
O      1.35551    -1.10155    -1.62738
H      0.58281    -1.64358    -1.31323
H     -0.87204    -2.56354     0.09038
O     -0.86855    -2.33893    -0.85480
H     -1.49430    -1.60264    -0.93012
H      1.89986     1.47420     0.15665
O      2.31658     0.63117     0.39049
H      2.12180     0.03685    -0.35287
H      0.33217     2.26472    -1.29060
O      0.67002     2.71573    -0.47519
H      0.84300     3.62972    -0.69562
H      1.50539    -0.00224     1.71098
O      0.87984    -0.27542     2.43225
H      1.37237    -0.23389     3.25124
H     -0.49442     1.98480     0.80034
O     -1.09190     1.37319     1.25854
H     -0.52118     0.82303     1.81372
H     -1.56104    -2.39835     2.51775
O     -0.83376    -2.41820     1.89728
H     -0.26079    -1.66327     2.10953
H      0.40983     0.36901    -2.30742
O     -0.21815     1.10396    -2.38958
H     -1.05853     0.74831    -2.06220
H     -1.91002     0.51575     0.02691
O     -2.29654     0.08440    -0.77311
H     -3.23686     0.25462    -0.75462
