  9
-229.44822766382018
H      0.77717    -2.46502    -0.59884
O      1.10462    -2.57548     0.29778
H      0.52201    -3.22648     0.69278
H     -0.06045     0.73343     0.05896
O     -0.09722    -0.13844    -0.34609
H      0.39946    -0.72486     0.23221
H      0.10202     3.15325    -0.34089
O     -0.51081     2.62336     0.17325
H     -1.23922     2.44087    -0.42553
