 27
-688.436315092554
H      0.44878    -2.08422    -2.90559
O      0.55597    -2.58339    -2.09439
H      1.30702    -2.16957    -1.63826
H      2.17170    -0.70531     0.19883
O      2.33567    -0.98125    -0.72571
H      3.26184    -0.82170    -0.91174
H     -0.86874    -1.22911     1.52228
O     -0.64720    -0.64067     2.27095
H     -1.18660     0.15071     2.13851
H     -3.04385     0.86522    -1.49082
O     -2.29344     0.54315    -0.99286
H     -2.23257     1.04463    -0.15886
H      2.45543    -0.22313     2.55886
O      1.90058    -0.05610     1.79864
H      0.96950    -0.29945     2.06085
H      0.74185     1.96468    -0.34959
O      0.82645     2.29265     0.56925
H      1.41924     1.66612     1.00923
H      1.00297     0.14088    -1.55752
O      0.42153     0.88694    -1.75435
H     -0.49206     0.59355    -1.62392
H     -0.65965    -2.25957    -0.79353
O     -1.24366    -1.89236    -0.11148
H     -1.76663    -1.20922    -0.54996
H     -0.75306     2.12783     1.11880
O     -1.68286     1.84861     1.33547
H     -2.09255     2.55598     1.83138
