 18
-458.9446898863694
H     -0.09496    -1.71619    -0.10017
O     -0.19369    -1.63202    -1.05674
H     -1.02868    -1.15487    -1.13315
H      2.03721     0.94353     2.22009
O      1.10976     0.78322     2.04610
H      0.89485     1.24234     1.19609
H      0.89115    -0.53551    -1.90997
O      1.36753     0.23037    -2.29340
H      2.23000    -0.08694    -2.55944
H      0.75503     1.43958    -1.07331
O      0.28357     1.80751    -0.30787
H     -0.59889     1.41395    -0.36101
H     -0.72258    -1.83835     2.50699
O     -0.63202    -1.23810     1.76854
H      0.04155    -0.56259     2.00887
H     -1.81015    -0.28211     0.74979
O     -2.10213     0.21013    -0.03733
H     -2.91447     0.65852     0.19639
