  9
-229.4587789023404
H      1.21488    -0.11008    -0.06875
O      1.17563    -1.08053    -0.12165
H      1.58758    -1.30484    -0.95696
H     -0.73052    -0.98871     0.00846
O     -1.55613    -0.47641     0.06583
H     -2.05578    -0.86198     0.78582
H      0.32157     2.19148     0.75193
O      0.34058     1.58682     0.01010
H     -0.52426     1.14202     0.00616
