 27
-688.4420123365329
H      2.12511    -3.53360    -1.02095
O      1.71999    -3.14194    -0.24763
H      0.83068    -2.82535    -0.52641
H     -0.99277    -1.44739    -0.05092
O     -0.55690    -1.83863    -0.82402
H     -0.68365    -1.19956    -1.53946
H      3.19290    -0.65899     1.03646
O      2.26396    -0.71585     0.80660
H      2.10035    -1.63295     0.49433
H      0.35625     3.67640     0.59282
O      0.06166     2.76680     0.58881
H      0.59800     2.27901    -0.08618
H     -2.32301     0.74136     0.24676
O     -2.26621     1.48518    -0.37234
H     -1.63980     2.10196     0.03467
H     -2.36296    -1.10938     2.02773
O     -1.82725    -0.61902     1.40548
H     -1.08468    -0.20284     1.91374
H      0.22986     1.49777     1.93535
O      0.30556     0.63471     2.37002
H      1.04220     0.17988     1.93368
H      1.64457     0.40425    -0.54830
O      1.32166     1.13268    -1.10176
H      0.66630     0.76610    -1.71362
H     -1.45726     0.46337    -3.30216
O     -1.03268     0.37119    -2.45050
H     -1.58768     0.84877    -1.78292
