  9
-229.4587829447634
H      1.54208    -1.75139     0.38852
O      1.14227    -1.12482    -0.21503
H      0.18011    -1.22636    -0.10877
H     -2.16499    -0.44308    -0.64421
O     -1.56558    -0.47534     0.10233
H     -1.16655     0.41056     0.15038
H      0.74981     2.00989     0.82007
O      0.35745     1.55533     0.07456
H      0.92642     0.78544    -0.09562
