 27
-688.4237698370158
H     -2.56140    -1.12716    -2.09217
O     -2.84393    -2.04284    -1.90092
H     -3.80141    -2.03322    -1.91918
H      1.18621    -0.52255    -1.26849
O      1.37087    -1.43815    -0.98552
H      1.60270    -1.92881    -1.77365
H      0.84085     0.32617     1.32141
O      1.75164     0.09746     1.58771
H      1.92775    -0.71313     1.10245
H     -1.00914     0.73932    -2.18117
O     -1.93434     0.54419    -1.98496
H     -2.04398     0.86134    -1.08369
H      2.74643     1.33967     0.66251
O      3.08149     1.91299    -0.05247
H      3.99409     1.66066    -0.19763
H     -0.39286     0.61462     4.27860
O     -0.16209     1.14726     3.51772
H      0.73134     0.87240     3.27412
H      0.22230     1.40745    -0.63725
O      0.78662     1.24525    -1.40891
H      1.65232     1.61120    -1.15049
H     -0.27540    -1.94996    -0.15413
O     -1.14111    -1.87994     0.27444
H     -1.79619    -2.10653    -0.40972
H     -0.97854     0.97468     1.78161
O     -0.86091     0.72214     0.85244
H     -1.11316    -0.22586     0.74370
