 27
-688.4413174807686
H      1.16933    -1.11355    -1.57695
O      1.96677    -0.56571    -1.51633
H      2.16445    -0.52567    -0.56848
H     -1.21223    -1.17135    -1.21873
O     -0.54650    -1.87621    -1.42335
H     -0.92902    -2.42954    -2.10298
H      0.83253     0.93205     1.71093
O      0.01244     1.42295     1.87043
H     -0.19936     1.85461     1.02749
H      0.05195     2.23794    -1.29412
O     -0.70467     2.37122    -0.67682
H     -1.01504     3.26767    -0.80865
H     -2.43140    -0.36028     2.91024
O     -1.87356    -0.42536     2.13695
H     -1.20293     0.30441     2.18455
H      2.76725    -0.75662     1.86054
O      2.02209    -0.53007     1.30501
H      1.36129    -1.26140     1.39770
H     -0.14086    -2.38299     0.33356
O      0.03794    -2.32159     1.28389
H     -0.73447    -1.87340     1.65968
H      1.41047     1.96235    -3.26577
O      1.36088     1.91827    -2.31168
H      1.65293     1.00400    -2.06683
H     -1.82980     0.87466    -0.65371
O     -2.25219     0.00294    -0.60102
H     -2.32887    -0.19125     0.34538
