 27
-688.4418525505766
H      1.60479    -1.64063    -0.57641
O      2.16036    -1.49382     0.20524
H      1.55914    -1.59336     0.95915
H     -0.56633    -1.74855    -1.15105
O      0.17460    -1.56799    -1.78929
H      0.05273    -2.17108    -2.52281
H      0.12103    -0.15576     1.96012
O      0.12761    -1.12891     2.12888
H      0.11133    -1.24813     3.07700
H     -0.67037     1.78125    -1.26019
O     -1.38829     2.09333    -0.64947
H     -1.71905     2.91371    -1.01380
H      3.52949     1.41771     0.03948
O      2.62488     1.11312    -0.01356
H      2.62795     0.12892     0.10235
H      1.14869     1.54694     1.05970
O      0.30326     1.48852     1.53165
H     -0.36326     1.80740     0.90660
H     -2.31278    -1.38061     0.18130
O     -1.61362    -2.05230     0.11996
H     -1.06078    -1.89986     0.90134
H      0.57111     0.23836    -2.08842
O      0.69764     1.19986    -2.03313
H      1.45648     1.32114    -1.44307
H     -2.55604     0.88223     0.06282
O     -3.16462     0.20363     0.39827
H     -3.58240     0.56560     1.17841
