 27
-688.4357362175803
H      1.49370    -1.63124    -1.40478
O      2.07165    -0.83372    -1.38263
H      2.54544    -0.81143    -2.21638
H     -0.37917    -2.60991    -0.90449
O      0.25105    -2.76008    -1.66031
H     -0.28244    -2.71736    -2.45454
H      1.12011     0.00038     1.49785
O      0.27213    -0.39079     1.74868
H     -0.33638     0.34721     1.88842
H      0.25661     2.06357    -0.63672
O      0.61008     2.59679     0.10611
H      1.42537     2.14335     0.36814
H      3.48762     0.67793     1.17319
O      2.63123     0.76704     0.75644
H      2.60260     0.17063    -0.01521
H     -0.66869     2.31697     1.13760
O     -1.40909     1.91012     1.66660
H     -1.59929     2.49188     2.40209
H     -2.00662    -1.49888     0.23204
O     -1.30570    -2.14723     0.38642
H     -0.66418    -1.66824     0.94759
H      0.35803     0.07549    -1.55908
O     -0.37587     0.70330    -1.58461
H     -1.15511     0.29308    -1.18409
H     -2.37356     0.85796     0.60608
O     -2.70198     0.21174    -0.04540
H     -3.56000     0.50626    -0.34851
