  9
-229.458779343332
H      0.27985    -1.02271     0.06353
O      1.20142    -0.85565    -0.19813
H      1.35862    -1.40397    -0.96689
H     -2.28826    -0.43071    -0.15049
O     -1.49889    -0.36411     0.38713
H     -1.17015     0.54418     0.26785
H      0.63060     2.29069     0.62799
O      0.25029     1.77453    -0.08373
H      0.85532     1.02318    -0.20897
