 21
-535.4267316073256
H     -0.23272     0.49016     1.80821
O     -0.67190    -0.39176     1.86544
H     -0.66808    -0.66011     2.78257
H      1.47463     1.80459     1.12251
O      0.52020     1.94708     1.31065
H      0.11340     2.13984     0.46276
H     -0.22041    -1.06108    -0.89620
O      0.66017    -1.23035    -0.52913
H      0.50311    -1.14686     0.41932
H     -4.75899    -1.09128    -2.15594
O     -4.76757    -0.76581    -1.25358
H     -5.11979     0.12418    -1.31509
H      3.67761    -1.04659    -1.35180
O      3.09715    -0.28881    -1.27670
H      2.20102    -0.65190    -1.09966
H      3.19758     0.89130    -0.00970
O      3.14124     1.54480     0.72137
H      3.70240     2.27738     0.46591
H     -1.83353    -0.50454     0.35293
O     -2.01288    -0.54895    -0.59424
H     -2.96245    -0.67894    -0.68460
