 27
-688.4282575880333
H      1.83147     0.00071    -1.32032
O      1.41012    -0.16278    -2.17145
H      1.21204    -1.11608    -2.16053
H      0.20262    -2.73236    -0.87801
O      0.68297    -2.75546    -1.73563
H      0.27275    -3.44055    -2.26202
H      1.09873     1.39548     0.59580
O      1.20086     0.43250     0.61474
H      0.40910     0.08058     0.19134
H     -0.10097     2.62220    -0.85936
O      0.25775     3.03863    -0.03103
H      0.80034     3.77933    -0.30099
H      1.37242    -0.81826     1.95857
O      1.13054    -1.57455     2.51862
H      1.95185    -2.01187     2.74439
H     -0.87694     2.56625     1.30312
O     -1.54651     2.09006     1.82676
H     -1.16287     1.93212     2.69098
H     -1.23560    -1.71227     0.52389
O     -0.66597    -2.48932     0.59975
H     -0.10164    -2.31425     1.36943
H      0.03130     0.94699    -2.24530
O     -0.71717     1.53124    -2.00127
H     -1.32456     0.95447    -1.51821
H     -1.84729     0.71027     0.83764
O     -1.97294     0.00238     0.16702
H     -2.92381    -0.09313     0.06953
