  9
-229.4587782041037
H      1.05665    -2.11271     0.96702
O      0.99812    -1.59284     0.16537
H      1.22979    -0.68362     0.42113
H     -1.23626    -0.22179    -1.84137
O     -1.20685    -0.22507    -0.88394
H     -0.60823    -0.95445    -0.64736
H      0.47344     1.68758     1.31344
O      0.74967     1.17575     0.55291
H     -0.06106     0.98853     0.04797
