 27
-688.43245189589
H      1.50729     0.12298    -0.19983
O      1.64748     0.08651    -1.16010
H      1.36681    -0.80603    -1.42743
H      0.01365    -2.67334    -0.97068
O      0.77327    -2.49703    -1.57914
H      0.61639    -3.00827    -2.37204
H      0.50349     1.33265     1.38657
O      0.59057     0.37170     1.48686
H     -0.30979     0.01446     1.54185
H      0.56358     3.03461    -0.21326
O      0.38671     3.11139     0.74320
H      1.03781     3.71212     1.10646
H      1.34057    -1.33452     1.58450
O      1.42419    -2.28396     1.41192
H      1.79033    -2.33888     0.52357
H     -1.50751     2.54513     0.29524
O     -1.97809     1.97408    -0.32394
H     -1.38356     1.96383    -1.08633
H     -1.54751    -2.07524     0.53741
O     -1.04651    -2.87754     0.33084
H     -0.30726    -2.88643     0.96289
H      0.56400     2.60684    -2.74924
O      0.38955     2.30735    -1.85827
H      0.88030     1.45127    -1.72623
H     -2.16109     0.43764     0.44916
O     -2.14059    -0.36036     1.02655
H     -2.87709    -0.27940     1.63488
