 21
-535.4425261624712
H     -0.92525     0.30169     1.59619
O     -1.68387    -0.17772     1.23516
H     -2.08176     0.44917     0.60774
H      1.05070     1.99128     1.99660
O      0.73999     1.26028     1.46478
H      0.67517     1.56095     0.54061
H      1.87803    -0.98328    -0.98748
O      1.30174    -0.91094    -1.77393
H      0.56621    -1.49336    -1.52163
H     -2.74420     1.63659    -1.52789
O     -2.19792     1.66146    -0.74200
H     -1.27107     1.67045    -1.03718
H      1.22588    -1.77157     0.77122
O      1.99743    -1.19402     0.83943
H      1.65512    -0.38646     1.24403
H      0.79886     0.62998    -1.55651
O      0.51740     1.55208    -1.29209
H      1.03944     2.15617    -1.81850
H     -0.98272    -2.99157     0.01461
O     -0.49482    -2.17554    -0.07669
H     -1.01483    -1.47097     0.38197
