  9
-229.45877625639076
H      1.83671    -1.14870    -0.48612
O      1.34228    -0.64681     0.16207
H      0.41210    -0.91316     0.05645
H     -2.02270    -0.63301     0.68519
O     -1.44509    -0.48014    -0.06358
H     -1.21579     0.46437    -0.02337
H      0.35846     2.45395    -0.53611
O      0.07828     1.85711     0.15787
H      0.78375     1.19275     0.23699
