 27
-688.431350262124
H      0.72807    -1.09362     1.35543
O      1.17319    -1.19152     0.50216
H      0.50555    -1.46899    -0.14939
H     -1.55357    -1.54187    -1.45042
O     -0.60287    -1.75006    -1.59063
H     -0.55798    -2.60617    -2.01838
H     -0.35723    -0.79546     3.68044
O     -0.17754    -0.42125     2.81866
H      0.07317     0.52036     2.93857
H     -2.86736    -0.42726    -0.39054
O     -3.15599    -1.02803    -1.11437
H     -3.68679    -0.50030    -1.71216
H      2.54565    -0.84375    -0.57502
O      3.07128    -0.51524    -1.32802
H      3.82177    -0.05220    -0.95462
H     -0.20986     2.90283     2.82853
O      0.39428     2.20380     2.57354
H      0.43590     2.22163     1.59684
H      1.71458     0.25926    -2.35208
O      0.81165     0.56260    -2.54198
H      0.26458    -0.21962    -2.37923
H      1.14614     0.93710     0.18085
O      0.59167     1.67330    -0.11270
H      0.57435     1.53491    -1.08676
H     -1.18109     1.01217     0.31308
O     -1.90212     0.50072     0.71780
H     -1.49026     0.01656     1.44707
