 27
-688.4417283379425
H      2.44933    -1.92196    -1.24117
O      1.79021    -1.29388    -0.94644
H      0.90831    -1.75065    -1.01345
H     -1.06190    -2.43599    -0.32902
O     -0.66907    -2.26085    -1.20138
H     -1.12801    -1.46262    -1.50667
H      1.77085     1.24009     0.96127
O      1.92275     0.36275     1.34501
H      1.99257    -0.23633     0.58390
H      1.46562     3.48622    -0.22852
O      1.11845     2.60323    -0.11211
H      1.08589     2.16943    -1.00295
H     -1.19821     1.02068     1.44819
O     -1.38763     1.60036     0.69671
H     -0.57183     2.10173     0.54163
H     -1.23196    -1.49371     1.80297
O     -1.67474    -2.23563     1.36000
H     -1.71734    -2.94615     1.99969
H     -0.24576    -0.04231     3.58300
O     -0.33198    -0.17006     2.63881
H      0.56990    -0.03517     2.24457
H      1.35609     0.25537    -1.92918
O      0.89592     1.04657    -2.25001
H     -0.03955     0.79314    -2.28759
H     -2.60844     0.52099    -1.98834
O     -1.75086     0.30275    -1.62642
H     -1.69743     0.73803    -0.74085
