 27
-688.4374768481749
H     -0.37817    -2.93131    -1.95484
O     -0.21738    -2.15224    -1.42415
H     -0.23459    -1.37088    -2.03757
H     -0.82577     0.65100    -2.74445
O     -0.06982     0.05344    -2.88557
H      0.68050     0.50759    -2.47727
H      0.43141     0.60148     2.98500
O      0.17345     1.54137     3.00354
H      0.88687     2.01881     3.42574
H     -1.65889     1.71572    -1.03578
O     -2.02408     1.74329    -1.94097
H     -2.97071     1.63287    -1.84954
H      2.07343     2.09769    -0.92922
O      1.59756     1.26933    -0.95482
H      0.76088     1.38808    -0.45285
H     -1.16993    -1.76878     0.14461
O     -1.52557    -1.27000     0.89727
H     -0.93242    -1.43891     1.64149
H      1.22095    -1.74275    -0.35993
O      1.88600    -1.28242     0.17597
H      2.00238    -0.42579    -0.26172
H      1.16354    -1.78351     3.13876
O      0.78766    -1.11226     2.57147
H      1.28022    -1.15789     1.71065
H     -1.12660     0.35202     0.54284
O     -0.76525     1.26322     0.43056
H     -0.54102     1.58115     1.32292
