 27
-688.4417423761752
H      2.42947    -1.99246    -1.18924
O      1.78283    -1.34678    -0.90488
H      0.89191    -1.78608    -0.96991
H     -1.09050    -2.43080    -0.28799
O     -0.69194    -2.27410    -1.16110
H     -1.13847    -1.47470    -1.48102
H      1.81078     1.22418     0.95601
O      1.94856     0.35151     1.35519
H      2.00809    -0.26139     0.60426
H      1.53024     3.45185    -0.27664
O      1.18031     2.57201    -0.14584
H      1.14398     2.12452    -1.02965
H     -1.16181     1.04238     1.43038
O     -1.34182     1.61620     0.67199
H     -0.51754     2.10137     0.51017
H     -1.24468    -1.46039     1.83032
O     -1.70420    -2.19746     1.39646
H     -1.78085    -2.89246     2.04976
H     -0.23584     0.00448     3.58631
O     -0.31734    -0.14119     2.64434
H      0.58757    -0.01810     2.25311
H      1.38263     0.18992    -1.92037
O      0.93792     0.98296    -2.25813
H     -0.00151     0.74470    -2.29632
H     -1.66614     0.74318    -0.75531
O     -1.72756     0.29873    -1.63589
H     -2.57602     0.53719    -2.00638
