 27
-688.4261175660463
H     -2.25821    -0.63508    -2.76276
O     -1.33748    -0.41558    -2.62606
H     -1.01373    -0.98918    -1.90327
H      2.37730    -1.31121     0.47990
O      2.40653    -1.89455    -0.30212
H      2.96237    -2.63803    -0.06767
H     -0.56600    -2.02022     0.44424
O     -0.34752    -1.71959    -0.46158
H      0.59983    -1.92460    -0.57185
H     -0.44968     1.04449    -3.00306
O      0.09437     1.83720    -3.17705
H      0.92289     1.51094    -3.53119
H      2.54211     0.38529     2.23230
O      1.91031    -0.21454     1.83530
H      1.17911     0.33329     1.48066
H     -0.33774     0.28816    -0.02760
O     -0.19362     1.00270     0.61176
H     -0.12746     1.84962     0.12172
H     -2.71840     0.38619     2.51551
O     -1.79850     0.18346     2.69170
H     -1.27551     0.62665     1.99774
H      0.09870     2.82020    -1.75858
O      0.04282     3.26496    -0.88301
H     -0.56958     3.99278    -0.99518
H     -1.09463    -1.46002     2.52351
O     -0.53991    -2.20409     2.22186
H      0.35161    -1.94364     2.46892
