 27
-688.4305517365843
H      1.63653    -0.07510    -1.79804
O      2.03336    -0.88290    -1.44914
H      1.40699    -1.58998    -1.64627
H     -1.05696    -2.69823    -0.15963
O     -0.19801    -2.49394    -0.56708
H      0.35945    -2.29651     0.19730
H      3.07893     2.00965     0.66573
O      2.12574     1.97710     0.74895
H      1.76901     1.79951    -0.13720
H     -0.49274     2.71993    -0.01434
O     -0.61760     2.71123     0.93880
H      0.28938     2.69690     1.26486
H      1.53453     0.17271     1.47183
O      1.24545    -0.69553     1.16056
H      1.68257    -0.78375     0.28977
H     -1.30796     1.08384     1.36983
O     -1.43861     0.11766     1.38882
H     -0.54647    -0.27614     1.42055
H     -3.41198    -2.41764     0.77356
O     -2.47333    -2.37946     0.95814
H     -2.27575    -1.46780     1.24558
H     -0.19349     0.98197    -1.57962
O      0.59585     1.58912    -1.61366
H      0.53563     2.09044    -2.42817
H     -1.77033    -0.00619    -0.59527
O     -1.37262    -0.14458    -1.47058
H     -0.93271    -1.01250    -1.40477
