 27
-688.4240903644104
H      0.10076    -5.05099     0.77863
O      0.80025    -4.49853     0.42433
H      1.46391    -4.47158     1.11627
H     -0.19718    -1.14373    -1.91515
O     -0.41147    -0.55361    -2.66991
H      0.07674    -0.86737    -3.43203
H      1.80324     2.36292     1.13301
O      2.40041     1.58973     1.02533
H      3.21586     1.80527     1.47941
H     -2.10334     0.67000     0.37657
O     -1.49920     1.36319     0.70222
H     -0.92908     1.55404    -0.06547
H     -0.25856     0.25072     1.68509
O      0.51132    -0.34391     1.73355
H      1.28786     0.22573     1.61676
H      0.38446     3.39363    -0.00689
O      0.45355     3.45807     0.95398
H     -0.34687     3.01034     1.26028
H      0.25318    -2.78295    -0.17677
O     -0.04562    -1.88274    -0.35733
H      0.22631    -1.32705     0.41371
H      1.20968     1.33969    -0.83712
O      0.42380     1.69180    -1.27233
H      0.11431     0.99612    -1.87579
H     -1.91501    -1.41135    -0.40518
O     -2.61001    -0.78010    -0.64159
H     -2.38046    -0.53008    -1.54207
