 27
-688.4222008991508
H     -0.77828    -2.14457    -1.88264
O      0.09274    -2.02232    -1.49729
H      0.44739    -1.20574    -1.92449
H      1.69099     1.75072     2.14677
O      1.57612     2.51307     1.54917
H      0.63003     2.63606     1.45869
H      1.20306    -0.37375     2.14019
O      1.85788     0.06580     2.71378
H      1.78984    -0.32939     3.58277
H     -2.00837     0.71406    -1.02572
O     -1.37172     1.43453    -0.83430
H     -1.80208     2.25829    -1.06511
H      0.11211     0.93555    -1.92639
O      0.85287     0.42967    -2.28527
H      1.61689     0.68511    -1.73767
H      0.10888    -1.27736     0.10171
O     -0.08960    -0.68058     0.86017
H     -0.27579     0.18485     0.46586
H     -2.34038    -2.86355     1.15876
O     -2.51220    -1.92174     1.11157
H     -1.64639    -1.48602     1.23371
H      2.39956     1.74597     0.17179
O      2.78846     1.10090    -0.45171
H      3.21219     0.44608     0.10767
H     -2.93098    -1.18217    -0.40831
O     -2.98732    -0.69409    -1.25951
H     -3.90940    -0.67692    -1.51527
