 18
-458.9444144136166
H     -0.20141     0.28441    -1.63830
O      0.28199    -0.52185    -1.97352
H      0.64495    -0.29145    -2.82799
H      1.08357    -1.00673     0.88616
O      1.76317    -0.42725     0.52888
H      1.62205    -0.49275    -0.42484
H     -0.23358    -1.88155    -0.91504
O     -0.47206    -2.36181    -0.10128
H     -0.66760    -3.26503    -0.34915
H      1.53172     1.32385     0.76552
O      1.28285     2.26936     0.72103
H      1.34533     2.60674     1.61537
H     -2.63633    -0.50371     1.49431
O     -1.73587    -0.32134     1.22755
H     -1.38287    -1.14261     0.84688
H     -1.36182     0.98884    -0.03516
O     -0.93390     1.49139    -0.74824
H     -0.22528     1.98887    -0.30322
