  9
-229.4587831285099
H      0.19451    -1.24011     0.08179
O      1.15405    -1.13730    -0.03804
H      1.38197    -1.67568    -0.79610
H     -1.15398     0.42722     0.12669
O     -1.56126    -0.45594     0.16449
H     -2.26308    -0.44975    -0.48674
H      0.69279     2.01987     0.81117
O      0.38774     1.55428     0.03153
H      0.94889     0.76218    -0.03151
