  9
-229.4587806663068
H      1.51226    -1.62812    -0.69979
O      1.09405    -1.11547    -0.00775
H      0.13595    -1.18610    -0.16384
H     -1.18890     0.48820    -0.19522
O     -1.59538    -0.38719    -0.31704
H     -2.22912    -0.47400     0.39603
H      0.76430     2.15693    -0.50195
O      0.34006     1.58336     0.13644
H      0.89724     0.78819     0.19016
