 27
-688.4316982412456
H      0.70640    -2.81574    -1.46977
O      0.58669    -3.69403    -1.06732
H      1.45773    -4.08942    -1.01859
H      0.63103    -0.79131    -0.66925
O      0.52854    -0.93344    -1.62774
H     -0.41824    -0.85007    -1.80007
H      1.50127     2.39874     1.48916
O      2.24489     1.88001     1.11322
H      3.06167     2.20416     1.49123
H     -1.77567     0.76300    -0.37615
O     -1.28496     1.53373    -0.04663
H     -0.58520     1.73373    -0.70137
H     -0.12403     0.25943     1.25316
O      0.62535    -0.35089     1.19926
H      1.40249     0.22705     1.24043
H     -0.35801     3.96993     1.87026
O     -0.09582     3.04945     1.86624
H     -0.69199     2.59289     1.23981
H     -0.56870    -3.13259     0.24485
O     -1.09625    -2.53489     0.80073
H     -0.44439    -1.93652     1.19282
H      1.10767     0.99649    -1.87859
O      1.04826     1.87976    -1.49281
H      1.66338     1.87144    -0.74707
H     -2.03525    -1.57214    -0.25382
O     -2.40895    -0.90501    -0.88020
H     -3.35402    -1.05510    -0.92037
