 27
-688.42992302956
H      0.85955    -2.13124     0.91273
O      0.69915    -3.06649     0.68400
H      1.34106    -3.26808    -0.00028
H      0.64341    -0.78205    -0.94153
O      0.30467    -0.82884    -1.85125
H     -0.63764    -1.00939    -1.77587
H      1.87347     2.43927     1.03237
O      2.44173     1.95436     0.39697
H      3.28721     2.39893     0.35387
H     -1.77595     0.85577     0.15523
O     -1.13981     1.54867     0.39610
H     -0.71512     1.82780    -0.44461
H      0.27224     0.21272     1.06347
O      1.04635    -0.34315     0.88521
H      1.76520     0.28875     0.72870
H     -0.23724     2.52532     1.55482
O      0.50817     2.95078     2.02482
H      0.33453     2.86377     2.96192
H     -0.90826    -3.19943     0.06328
O     -1.79654    -3.16727    -0.35516
H     -1.74207    -3.70860    -1.14378
H      0.43308     1.02720    -2.06553
O      0.46107     1.94919    -1.75678
H      1.28815     2.02147    -1.26098
H     -2.39158    -1.54337    -0.36245
O     -2.67415    -0.61471    -0.48516
H     -3.62961    -0.62009    -0.54350
