 27
-688.4412447906532
H      1.62766    -3.18753    -1.47373
O      1.37677    -3.01714    -0.56576
H      0.43295    -2.71781    -0.59269
H     -1.26450    -1.46298     0.23489
O     -1.08339    -1.98493    -0.56183
H     -1.26596    -1.38922    -1.30392
H      3.26525    -1.02986     1.03185
O      2.32411    -0.95655     0.86514
H      2.03427    -1.79772     0.44704
H      0.85551     3.54627     0.13852
O      0.44903     2.69787     0.31040
H      0.81270     2.05030    -0.34179
H     -2.15574     0.95030     0.47313
O     -2.10259     1.62220    -0.22414
H     -1.37035     2.19783     0.04091
H     -2.20711    -0.65625     2.43794
O     -1.67601    -0.35176     1.70281
H     -0.84435     0.03293     2.07905
H      0.61317     1.59351     1.80031
O      0.64048     0.79261     2.34484
H      1.30255     0.21552     1.93492
H      1.62652     0.02145    -0.55845
O      1.25960     0.64514    -1.20305
H      0.52391     0.21724    -1.66359
H     -1.81868     0.27485    -3.11536
O     -1.33563     0.13696    -2.30217
H     -1.69858     0.76708    -1.63009
