 21
-535.4360078288822
H     -1.89207    -2.92453     2.86506
O     -0.97309    -2.65742     2.83830
H     -0.96329    -1.68344     2.75059
H     -0.80627     0.41211     1.29978
O     -0.38715    -0.15421     1.96088
H      0.33000    -0.58063     1.47904
H      0.15201    -2.77205     1.42589
O      0.76647    -2.48143     0.72353
H      1.63048    -2.82703     0.94982
H      0.80243     2.48213    -1.82670
O      0.29543     3.09313    -1.24594
H      0.94488     3.48434    -0.65919
H      1.58914     1.03209    -3.60967
O      1.59563     1.17698    -2.66335
H      1.17641     0.38652    -2.25880
H     -2.30247     1.48981    -0.42688
O     -1.39494     1.28043    -0.20660
H     -0.83188     2.01891    -0.54206
H     -0.51153    -0.22308    -0.99310
O      0.16907    -0.76403    -1.41549
H      0.38745    -1.45095    -0.77354
