 27
-688.442189468159
H      0.91985    -0.87662    -1.14585
O      1.73136    -0.35067    -1.07410
H      2.01727    -0.44692    -0.15475
H     -1.38628    -1.20690    -1.14998
O     -0.66416    -1.87994    -1.24219
H     -0.89929    -2.45610    -1.96797
H      0.98462     0.76912     1.62260
O      0.20548     1.34420     1.59577
H      0.11207     1.66481     0.68418
H      0.22377     2.13473    -1.62300
O     -0.51093     2.24041    -0.97919
H     -0.75651     3.16716    -0.98668
H     -2.45777     0.08689     2.85162
O     -1.95252    -0.14748     2.07452
H     -1.18072     0.47157     2.01950
H      2.69868    -1.18036     2.18675
O      1.98503    -0.83345     1.65341
H      1.23070    -1.47333     1.70048
H     -0.95645    -1.75303     1.79831
O     -0.22668    -2.30684     1.48326
H     -0.35133    -2.36288     0.52369
H      1.63785     1.65062    -3.53168
O      1.61308     1.85934    -2.59837
H      1.83624     1.03123    -2.11638
H     -1.81604     0.89347    -0.81176
O     -2.34668     0.09339    -0.67496
H     -2.43435    -0.00506     0.28557
