  9
-229.4585896434454
H      1.98871    -1.38860    -0.16697
O      1.40905    -0.63083    -0.24278
H      0.50101    -0.97571    -0.29688
H     -1.87824    -1.02694     0.65052
O     -1.38417    -0.72751    -0.11351
H     -1.23345     0.22327     0.03030
H      0.71296     1.13906     0.15286
O     -0.06025     1.72146     0.22117
H      0.03194     2.33821    -0.50534
