  9
-229.45877588889778
H      1.52039    -1.72984     0.46067
O      1.13665    -1.14245    -0.19070
H      0.17221    -1.23752    -0.10062
H     -1.17377     0.40889     0.08876
O     -1.57411    -0.47738     0.06712
H     -2.17019    -0.46814    -0.68272
H      0.74572     2.03715     0.71165
O      0.35667     1.54816    -0.01357
H      0.92518     0.77012    -0.14455
