 18
-458.9364943514778
H      2.26259     0.41640    -0.12235
O      1.68977    -0.17418    -0.61545
H      1.08331    -0.55137     0.05047
H     -0.64126    -1.70808     0.20494
O     -0.38594    -1.18609     0.97331
H     -1.02476    -0.43809     1.00514
H     -1.01694     0.23853    -2.01555
O     -0.74404     1.10587    -1.69969
H      0.19671     0.97744    -1.51914
H      0.06288    -2.57526    -2.57603
O     -0.12607    -1.88591    -1.93862
H      0.70329    -1.40795    -1.79718
H      1.03483     1.10904     3.29896
O      0.95474     0.97074     2.35468
H      0.66219     0.05496     2.24613
H     -1.41534     1.37328     0.00976
O     -1.57453     1.22428     0.95791
H     -0.79882     1.58104     1.40962
