 18
-458.9368282188683
H      1.67534    -0.43586     0.86549
O      2.01400    -0.92803     0.10764
H      1.43853    -1.70617     0.04264
H     -0.63411    -2.05591    -0.54724
O     -0.01621    -2.76279    -0.29436
H     -0.13573    -3.47026    -0.92886
H     -0.76376     0.19860    -1.31777
O     -1.26779    -0.22758    -0.61306
H     -0.71095    -0.05520     0.16273
H      1.60949     0.23690    -1.14068
O      1.20806     0.99449    -1.61919
H      1.81276     1.23453    -2.32211
H     -0.40628     1.58524     1.47533
O      0.41575     1.12765     1.24392
H      0.73010     1.58220     0.45239
H     -2.89902     1.59406     1.88587
O     -2.26840     1.91141     1.23813
H     -2.35522     1.30858     0.48830
