 18
-458.9437438491395
H      1.00883     0.32933    -2.51789
O      0.54579     0.49829    -1.69793
H      1.19246     0.92476    -1.08388
H     -1.16287     0.95873    -1.36264
O     -2.08904     1.13323    -1.12205
H     -2.58370     1.14073    -1.94222
H     -0.91780    -1.49551     0.44590
O      0.00302    -1.63685     0.16472
H      0.10301    -1.07769    -0.61647
H      2.24882     0.72804     0.77031
O      2.21363     1.49084     0.15126
H      1.90068     2.22591     0.68041
H      2.57218    -1.39619     1.99665
O      1.98019    -0.68679     1.74643
H      1.23062    -1.10765     1.26215
H     -2.85882    -0.43115     1.58220
O     -2.55306    -0.80094     0.75312
H     -2.49928    -0.05368     0.12484
