  9
-229.45877813060508
H      1.49517    -1.63526    -0.75645
O      1.24418    -1.13051     0.01804
H      0.28116    -1.24255     0.09779
H     -2.05457    -0.44404     0.88756
O     -1.48337    -0.51312     0.12243
H     -1.11578     0.37648    -0.01599
H      0.99257     0.76091    -0.10264
O      0.41152     1.54072    -0.14227
H      0.76364     2.16345     0.49405
