 18
-458.93736821308244
H     -1.89390    -0.66460    -3.05081
O     -1.03027    -0.25416    -2.98889
H     -0.92258    -0.00999    -2.05505
H     -1.30024     1.68439     3.29716
O     -0.48915     1.20342     3.12735
H     -0.77098     0.33601     2.76359
H      0.57104    -1.22814    -2.96919
O      1.36080    -1.58627    -2.52688
H      2.11201    -1.27163    -3.03114
H      0.66596     1.72846     1.89668
O      1.20987     1.86697     1.09240
H      1.20285     2.80689     0.90836
H     -0.78452    -1.93444     2.06541
O     -1.15993    -1.08909     1.81401
H     -0.75006    -0.86051     0.95222
H      0.62728     0.57015     0.01888
O      0.14680    -0.17353    -0.39165
H      0.79101    -0.70489    -0.88557
