 27
-688.4329572355143
H      0.62247     1.15845     1.79565
O      0.46074     1.48258     0.88867
H      1.13511     1.08056     0.32165
H      1.49492    -1.34581    -0.51110
O      1.16735    -2.18130    -0.14557
H      0.48257    -2.46029    -0.77714
H      0.30508    -2.02585     1.26053
O     -0.31225    -1.91431     2.03316
H     -0.56253    -2.79411     2.31147
H     -0.09639     4.21160    -0.79521
O     -0.53305     3.36073    -0.82613
H     -0.21100     2.84220    -0.06439
H     -1.43346    -1.49525    -1.16940
O     -1.08420    -2.16598    -1.78463
H     -1.03071    -1.73090    -2.63808
H      0.41166    -0.60633     2.95471
O      0.87147     0.20763     3.23879
H      1.73531    -0.06512     3.54998
H      0.87186     0.52827    -1.84232
O      1.69229     0.28984    -1.35277
H      2.43859     0.57022    -1.88077
H     -0.66839     2.01510    -2.01692
O     -0.70708     1.09391    -2.33091
H     -1.39800     0.70881    -1.77824
H     -1.05903     0.50526     0.37747
O     -1.66897    -0.21012     0.12650
H     -1.60525    -0.83053     0.86496
