  9
-229.44822795781457
H      2.38476    -0.58440    -0.58706
O      2.17995    -1.51557    -0.46701
H      2.67568    -1.77690     0.31102
H     -3.04686     1.05601    -0.62125
O     -2.66118     0.86342     0.23597
H     -2.28475     1.69694     0.52903
H     -0.84062     0.20311     0.05833
O      0.11356     0.30708    -0.00766
H      0.47380    -0.57822    -0.11510
