 27
-688.4294909312905
H      0.90613    -2.74761    -1.92840
O      0.40840    -2.05489    -1.49471
H      0.85392    -1.19389    -1.68894
H      0.86955     1.78735     1.75650
O      0.70374     2.40723     1.02577
H     -0.06488     2.06167     0.55282
H      1.00472    -0.43574     2.32050
O      1.43735     0.32700     2.73583
H      2.37413     0.21784     2.56176
H     -1.74961     0.42724    -0.94110
O     -1.29094     1.25927    -0.65042
H     -1.80539     1.98475    -1.01318
H      0.44461     0.93241    -1.54701
O      1.24507     0.46468    -1.82470
H      1.97901     0.97100    -1.43239
H      0.08441    -1.72131     0.29408
O     -0.23963    -1.28525     1.10118
H     -0.54011    -0.41454     0.81429
H     -3.32813    -2.26118     1.77261
O     -2.75406    -2.36856     1.01337
H     -1.86129    -2.10368     1.29862
H      2.20062     2.37240     0.10863
O      2.96582     2.14939    -0.46572
H      3.30774     2.98127    -0.79575
H     -2.62259    -1.59441    -0.63237
O     -2.24941    -1.10505    -1.38559
H     -1.44252    -1.59351    -1.60790
