 27
-688.4256772726831
H      1.94245    -0.08768    -1.28420
O      1.09767     0.13976    -1.67864
H      0.55260    -0.68871    -1.69707
H     -0.15912    -2.53709    -0.72103
O     -0.48002    -2.00100    -1.46272
H     -1.27054    -1.58887    -1.08459
H      1.03710     0.38504     1.47088
O      1.64986    -0.35812     1.55391
H      1.22764    -1.08584     1.07541
H     -0.66616     3.28136    -1.73473
O     -1.23552     3.57702    -0.99510
H     -2.08812     3.79003    -1.37621
H      1.49837    -1.41435     3.09485
O      1.19699    -2.21218     3.56660
H      1.98455    -2.64674     3.89578
H     -0.78462     2.24954     0.13511
O     -0.38558     1.40831     0.42696
H      0.17137     1.14533    -0.32249
H     -0.92275    -2.11224     1.21105
O     -0.11336    -2.64176     1.16574
H      0.21455    -2.72302     2.07450
H      1.22062     2.95788    -3.21345
O      0.42457     2.52491    -2.90194
H      0.69262     1.64067    -2.59522
H     -1.54940     0.10251     0.53012
O     -2.05441    -0.73818     0.47958
H     -2.94973    -0.57141     0.77358
