 30
-764.9141526935902
H     -5.14598     3.10382     0.49105
O     -4.24728     3.10418     0.16286
H     -4.07176     2.20269    -0.17725
H     -0.72843     0.42097     1.10735
O     -0.15914     1.19630     1.01346
H     -0.74833     1.96109     1.14082
H      0.63946    -2.64246    -0.88784
O      0.00650    -1.95688    -1.17251
H      0.55352    -1.17065    -1.31360
H      2.81947    -3.23465    -0.34057
O      1.94280    -3.66256    -0.23859
H      1.94265    -4.03161     0.64507
H      3.08758     0.38816    -0.51569
O      4.00232     0.23824    -0.20668
H      4.06603     0.69436     0.63314
H     -2.75064     3.27070     1.03123
O     -1.90681     3.25573     1.52600
H     -2.13831     3.41463     2.44168
H      1.23805     1.21250    -1.76851
O      1.39607     0.58911    -1.05839
H      0.85351     0.90041    -0.28687
H      4.90085    -2.57549    -1.22838
O      4.35544    -2.44774    -0.45130
H      4.27675    -1.47762    -0.33558
H     -2.86567     0.09245    -0.10053
O     -3.48370     0.61916    -0.63524
H     -3.26801     0.41868    -1.54759
O     -1.73250    -1.11185     0.63975
H     -1.12620    -1.52182    -0.03841
H     -2.00261    -1.80680     1.23844
