 27
-688.4340618092244
H      2.42551    -1.99044    -1.29328
O      1.73172    -1.37124    -1.06357
H      0.87577    -1.85892    -1.19740
H     -1.10057    -2.47021    -0.72521
O     -0.54771    -2.66333    -1.52450
H     -1.05906    -2.30336    -2.25201
H      1.84888     0.93899     1.14995
O      1.90459     0.01922     1.44421
H      1.94445    -0.50319     0.62957
H      1.77285     3.31168     0.14173
O      1.36828     2.44779     0.21070
H      1.20143     2.11637    -0.69137
H     -1.15019     1.21312     1.84876
O     -1.22811     1.97530     1.25726
H     -0.32158     2.26828     1.09608
H     -1.61278    -1.33916     1.23943
O     -2.04587    -1.65854     0.43496
H     -2.13341    -0.86972    -0.13538
H     -0.48013    -0.68536     3.43806
O     -0.52027    -0.43766     2.51525
H      0.40881    -0.33911     2.19986
H      1.35906     0.17814    -1.77186
O      0.96652     1.03088    -2.05264
H      1.10412     1.12190    -2.99499
H     -1.72568     1.23530    -0.29276
O     -1.75277     0.63240    -1.06418
H     -0.91129     0.76508    -1.51383
