 27
-688.4304099945341
H      1.60411    -0.93536    -1.47898
O      2.11794    -0.09454    -1.39261
H      2.91241    -0.17112    -1.92059
H     -0.36742    -1.58127    -1.07690
O      0.40568    -2.14609    -1.24539
H      0.58172    -2.57609    -0.39692
H     -0.30811     2.10514     0.24303
O     -0.55023     1.91664     1.16727
H     -0.80224     2.76648     1.53053
H     -0.22732     3.51011    -1.29093
O     -0.33508     4.27256    -0.70296
H     -0.02150     5.03712    -1.18483
H     -1.15707    -2.75567     1.25120
O     -2.10240    -2.74521     1.01305
H     -2.28429    -3.56843     0.55669
H      0.84522     0.75700     1.48639
O      1.48448     0.04067     1.35876
H      1.82229     0.14553     0.45708
H      0.91147    -1.51876     1.54227
O      0.61783    -2.46760     1.53634
H      1.09765    -2.91354     2.23342
H     -0.70556     0.93684    -1.46685
O     -0.04031     1.63434    -1.56544
H      0.81237     1.17481    -1.60806
H     -2.01754    -1.12939     0.17155
O     -1.59992    -0.36087    -0.25424
H     -1.38583     0.25121     0.46378
