 18
-458.9409424500005
H      3.37220    -0.79715    -1.79220
O      2.97999    -0.30561    -1.07035
H      2.10422    -0.02048    -1.38376
H     -0.67319    -0.22845     3.25006
O     -0.32928     0.31195     2.53867
H      0.33524    -0.23871     2.06711
H     -3.01193    -0.97996    -1.32107
O     -2.46362    -0.24370    -1.59154
H     -2.37939     0.34136    -0.82032
H     -1.17472     1.06614     1.24542
O     -1.56656     1.45101     0.42915
H     -1.68774     2.38784     0.58506
H      2.08709    -0.99619     0.52779
O      1.22096    -1.21612     0.90082
H      0.64665    -1.09439     0.13264
H     -0.07856     0.93073    -0.84288
O      0.25205     0.23052    -1.42251
H     -0.56647    -0.11845    -1.80456
