 27
-688.4294345578642
H      3.14629     0.89442    -1.63200
O      2.48844     0.43159    -1.11462
H      2.46328    -0.50180    -1.41172
H      1.37588    -2.29344    -0.70103
O      1.83291    -2.13357    -1.55065
H      1.21910    -2.39073    -2.23942
H     -1.48198    -0.97361    -1.00806
O     -1.88091    -1.61534    -0.40195
H     -2.46012    -1.08283     0.17099
H     -0.35018     2.57664    -1.15884
O     -0.31304     3.36745    -0.59598
H     -0.97430     3.96763    -0.94034
H      0.31059    -3.13355     1.27163
O      0.38973    -2.33523     0.74886
H     -0.51580    -2.11099     0.40334
H     -0.47716     2.33523     1.04893
O     -0.65822     1.46645     1.43848
H      0.20350     1.03286     1.62017
H      1.34882    -0.83142     1.36888
O      1.65268     0.07599     1.51703
H      2.11686     0.31505     0.70324
H      0.62307     0.54824    -1.26170
O     -0.34171     0.64084    -1.25624
H     -0.59485     0.81004    -0.33149
H     -2.29268     0.70744     1.46640
O     -3.09459     0.17763     1.29793
H     -3.56169     0.10492     2.13026
