 27
-688.4312457471148
H      0.86227     1.71491     2.14941
O      1.26137     0.82764     2.16612
H      1.86914     0.81337     1.39324
H     -1.19388    -2.62736    -1.22455
O     -1.35351    -2.13598    -2.05022
H     -1.90632    -2.68288    -2.60787
H     -1.43343    -0.41507     2.44133
O     -0.91848    -0.52827     1.64179
H     -0.04871    -0.05188     1.80610
H     -0.14087     2.80569     0.48077
O     -0.30221     3.00091     1.42059
H     -1.25311     3.02710     1.52682
H     -0.01820     2.64848    -1.98685
O      0.09406     2.15006    -1.17846
H     -0.60683     1.45267    -1.17023
H      0.54806    -1.38862    -1.82549
O      1.30751    -1.45104    -1.23803
H      1.01912    -2.09261    -0.57980
H     -0.32819    -3.61505     1.01858
O     -0.55404    -2.90906     0.41214
H     -0.70001    -2.09282     0.94174
H      2.24703     0.01203    -0.66120
O      2.47787     0.87247    -0.27507
H      1.84083     1.48081    -0.67091
H     -1.64425     0.04595    -0.00818
O     -1.82359     0.33480    -0.91717
H     -1.74379    -0.46684    -1.45504
