 18
-458.9445889727916
H      0.15668    -1.92380    -0.07754
O     -0.81425    -1.90742     0.05791
H     -0.87944    -1.58840     0.96695
H     -0.23861     0.67166     1.61036
O      0.05577    -0.08478     2.15218
H      0.29652     0.25829     3.01170
H      1.05215     1.71915    -0.76741
O      1.34456     1.03873    -1.38044
H      0.51654     0.73081    -1.77133
H     -1.58688     2.36826     0.85683
O     -0.85022     1.88385     0.48397
H     -1.19834     1.39172    -0.28208
H      1.82355    -0.42694    -0.41635
O      1.79149    -1.19936     0.17392
H      1.48539    -0.84549     1.01970
H     -1.27793    -0.68938    -1.00283
O     -1.40582     0.14324    -1.52912
H     -1.90190    -0.08977    -2.31271
