  9
-229.4587850762228
H      1.58220    -1.46758    -0.59201
O      1.23993    -0.88515     0.08646
H      0.28642    -1.07205     0.14264
H     -1.22530     0.43532     0.10696
O     -1.53107    -0.48224     0.21126
H     -2.01421    -0.49639     1.03834
H      0.84061     0.99630     0.01520
O      0.18637     1.71265    -0.05154
H      0.41556     2.20343    -0.84082
