 27
-688.4356628659775
H      1.61903    -1.48347    -0.55346
O      2.16238    -1.16435     0.19153
H      2.82515    -1.83431     0.36198
H     -0.38536    -2.15747    -1.12506
O      0.38816    -1.98231    -1.73001
H      0.31349    -2.59151    -2.46355
H      0.82006    -1.13940     1.65982
O     -0.02787    -1.24199     2.11242
H     -0.37401    -0.34205     2.19402
H      0.06580     2.10634    -0.80484
O      0.39909     2.60481    -0.03336
H      1.35187     2.40774    -0.01243
H      3.52736     1.52152    -0.87710
O      2.92258     1.47447    -0.13703
H      2.65239     0.54270    -0.05800
H     -0.44287     1.91528     1.21691
O     -1.02899     1.42650     1.86416
H     -1.13128     1.99459     2.62743
H     -2.16957    -1.43486    -0.01607
O     -1.55731    -2.18326     0.05480
H     -1.07186    -2.02307     0.89193
H     -0.07824    -0.10202    -1.93288
O     -0.55262     0.73182    -1.82846
H     -1.38219     0.50028    -1.38421
H     -2.25772     0.76432     0.75127
O     -2.71696     0.35286    -0.00602
H     -3.55798     0.79514    -0.11442
