  9
-229.4587729489538
H      1.35948    -1.62072    -0.84856
O      1.16301    -1.06858    -0.09161
H      0.20975    -1.17104     0.07085
H     -1.14364     0.48878     0.12045
O     -1.54385    -0.39459     0.20283
H     -2.28448    -0.40634    -0.40386
H      0.71839     2.10239     0.69202
O      0.38860     1.61946    -0.06678
H      0.95081     0.82827    -0.13216
