 27
-688.4363167830218
H      0.47214    -2.31873    -2.73278
O      1.03159    -2.51853    -1.98054
H      1.59119    -1.73316    -1.86421
H      2.14292     0.34722    -0.59507
O      2.14371    -0.04227    -1.49315
H      2.78505     0.44151    -2.01515
H      0.24544    -1.08338     1.79251
O      0.37076    -0.29882     2.36231
H     -0.49034     0.14042     2.37884
H     -3.43169    -0.85192    -0.36943
O     -2.51096    -0.71484    -0.14983
H     -2.45462    -0.05551     0.56629
H      2.83474     1.42887     1.45587
O      2.07007     1.17046     0.94395
H      1.48884     0.62782     1.54613
H     -0.47515     1.95264    -0.77448
O     -0.29451     2.49276     0.02210
H      0.62314     2.29553     0.25974
H      0.25733     0.17793    -1.85593
O     -0.63716     0.54204    -1.87943
H     -1.21831    -0.06624    -1.39974
H      0.23596    -2.44104    -0.35722
O     -0.22664    -2.20368     0.46184
H     -1.11251    -1.92740     0.19496
H     -1.36743     1.81629     1.12447
O     -1.94288     1.23386     1.68933
H     -2.47298     1.79985     2.24864
