 27
-688.4238619675108
H      2.01046     1.27621     0.23747
O      1.45960     0.97315    -0.50825
H      0.56604     1.19303    -0.17139
H      1.52752    -2.16103    -0.85591
O      1.73661    -1.69588    -0.04411
H      1.73155    -0.73921    -0.27285
H     -1.03655    -0.46367    -1.47447
O     -0.40529    -0.50161    -2.20432
H      0.34281     0.04074    -1.91566
H     -1.65801     1.12478     0.35570
O     -0.86631     1.11658     0.91074
H     -0.81536     0.22645     1.30910
H      2.28183    -1.60328     1.74059
O      2.19203    -1.30619     2.66154
H      3.01742    -1.50709     3.10272
H      1.87761     0.60390     2.49690
O      1.81489     1.50863     2.16043
H      0.86985     1.69209     2.10452
H      0.19122    -1.44340     2.49066
O     -0.47485    -1.43325     1.79315
H      0.01303    -1.77904     1.03356
H     -1.56475     0.30251    -3.46438
O     -2.40000     0.74976    -3.69172
H     -2.79625     0.24282    -4.40095
H     -2.87340     0.89531    -1.95715
O     -2.93463     0.75379    -0.99362
H     -3.85417     0.87364    -0.75005
