 27
-688.4268297674803
H      1.62414    -0.60697    -1.40973
O      1.57958    -0.27746    -2.31474
H      0.89139    -0.82747    -2.70464
H     -0.28047    -1.91551    -1.16547
O     -0.65753    -1.89914    -2.06211
H     -1.31589    -2.59465    -2.09468
H      0.64431     2.05663     1.80258
O     -0.24616     2.40224     1.65575
H     -0.21847     2.72806     0.74760
H     -0.91195     1.35120    -1.43313
O     -1.66664     0.74315    -1.47436
H     -1.35643    -0.05429    -1.92505
H     -1.62883    -1.61896     2.00586
O     -1.17576    -2.45682     2.20404
H     -1.20926    -2.56090     3.15478
H      1.75572     0.10404     1.01595
O      2.13928     0.98433     1.17889
H      3.04285     0.86921     1.47117
H     -0.23789    -0.64064     0.61473
O      0.53788    -1.22619     0.42950
H      0.36694    -1.94775     1.05349
H      1.43309     1.92465    -0.36212
O      0.81302     2.06947    -1.08966
H      1.09862     1.41931    -1.75637
H     -1.28829     0.94874     1.53404
O     -1.66983     0.12236     1.17079
H     -1.95435     0.33354     0.25742
