 27
-688.4221132888197
H     -2.33985    -1.90061     1.23112
O     -1.93147    -2.14179     2.08503
H     -2.06041    -3.08315     2.19880
H      0.40241    -0.90228    -1.67122
O      0.57158    -1.68271    -1.08194
H     -0.24278    -2.19168    -1.11109
H      2.18614     0.22958     0.55134
O      2.73051     0.11586    -0.23481
H      2.42065    -0.71552    -0.61311
H     -3.58252    -1.10335    -0.78153
O     -2.72766    -1.18997    -0.36040
H     -2.33425    -0.29805    -0.31968
H      2.63336     1.39496    -1.50196
O      2.40083     1.94156    -2.27752
H      3.15891     1.91649    -2.86220
H      0.34069     0.95978     2.42841
O      0.09968     1.89548     2.49978
H      0.26096     2.15377     3.40720
H     -0.51486     1.00351    -1.63199
O     -0.00772     0.60235    -2.35059
H      0.78048     1.16229    -2.46973
H      0.51798    -1.12709     0.61276
O      0.33016    -0.68486     1.46548
H     -0.37335    -1.22009     1.88201
H     -1.50730     1.97752     0.57313
O     -1.35693     1.15894     0.09604
H     -0.68752     0.69354     0.62671
