 27
-688.4371223644272
H     -0.50150    -1.58709     1.24998
O      0.24889    -1.66690     1.85631
H      1.02077    -1.71533     1.27111
H     -0.05272    -1.06244    -2.59936
O      0.00188    -1.66345    -1.83631
H     -0.75681    -1.46277    -1.27286
H      1.27955     1.29799     1.47015
O      1.54296     1.31358     0.54119
H      1.90677     0.43353     0.35817
H     -1.92247     0.06654     0.63805
O     -1.86327    -0.76765     0.11242
H     -2.73562    -1.16618     0.12288
H      0.34201     1.56750    -0.69667
O     -0.42401     1.62381    -1.30720
H     -0.97883     0.87685    -1.06513
H      0.34161    -0.21832     2.75456
O      0.36752     0.73551     3.01485
H      0.59575     0.78155     3.94276
H     -0.70714     0.63321    -4.39234
O     -0.07194     0.35403    -3.73270
H     -0.11031     1.01550    -3.01546
H      1.40793    -1.48482    -0.90430
O      2.08225    -1.34713    -0.19428
H      2.90044    -1.74679    -0.48685
H     -1.03425     1.44807     2.06163
O     -1.72824     1.57156     1.39179
H     -1.35330     2.17165     0.73744
