 27
-688.4371756509121
H      1.36532     0.76597     0.13400
O      1.76729     0.76956    -0.75795
H      1.19066     0.20615    -1.29305
H      1.60503    -2.11280     0.22274
O      0.73763    -2.47346    -0.04406
H      0.44735    -1.95699    -0.80958
H     -0.77351    -1.05411    -2.72032
O     -0.45276    -0.62236    -1.92909
H     -1.22819    -0.48305    -1.32696
H      0.65151     2.15116    -1.51159
O     -0.23221     2.38455    -1.84565
H     -0.51039     1.58086    -2.29806
H      3.04467    -0.50056     0.18252
O      3.00643    -1.17829     0.87395
H      2.66621    -0.69849     1.63543
H     -0.12227    -0.15234     1.81054
O      0.35200     0.66661     1.60765
H     -0.32757     1.32536     1.40307
H     -1.31509    -2.36734     2.46939
O     -1.04312    -1.74670     1.79375
H     -0.40084    -2.19538     1.18946
H     -2.01010     3.17899     0.74558
O     -1.58935     2.36913     0.45982
H     -1.14988     2.53369    -0.40745
H     -2.31716     0.68485     0.15956
O     -2.37947    -0.23259    -0.14657
H     -2.11813    -0.78044     0.60968
