  9
-229.45877985782218
H      1.23809    -0.40756    -0.20266
O      0.90654    -1.32173    -0.22768
H      1.42975    -1.79945     0.41697
H     -0.83673    -0.67782     0.22335
O     -1.44048     0.04818     0.45938
H     -2.20435    -0.04977    -0.10948
H      0.03456     1.27885     0.34245
O      0.96176     1.45734     0.10976
H      0.93574     2.13853    -0.56252
