  9
-229.4587802620645
H      1.80972    -1.30757    -0.24450
O      1.09967    -0.82807    -0.67166
H      0.28789    -1.06726    -0.19101
H     -2.18799    -0.72769     0.23751
O     -1.34726    -0.58084     0.67250
H     -1.13706     0.35645     0.51877
H      0.59355     1.02482    -0.55323
O     -0.00035     1.71196    -0.20582
H      0.55430     2.30182     0.30501
