 27
-688.4366683635749
H      3.64047     1.02260     0.40721
O      2.80387     0.62546     0.16838
H      2.14594     1.33793     0.04460
H      1.13376    -1.66902    -1.15995
O      1.65597    -1.07659    -1.71896
H      2.25750    -0.61516    -1.11976
H     -3.19176    -1.07986    -1.36322
O     -2.38630    -0.78505    -0.93948
H     -2.64693    -0.31142    -0.11371
H      0.25604     1.75159    -1.07493
O      0.68909     2.25575    -0.33354
H      0.68850     3.17737    -0.58822
H     -0.52460    -3.30810    -0.15263
O     -0.29417    -2.37896    -0.17225
H     -1.08334    -1.87754    -0.45495
H     -0.04207     1.65361     1.34487
O     -0.42013     1.15552     2.08503
H      0.14517     0.35901     2.16360
H      0.72717    -1.59789     1.19922
O      1.21646    -1.02000     1.80061
H      1.90659    -0.60816     1.26403
H      0.40444     0.07440    -2.28035
O     -0.33181     0.72083    -2.25548
H     -1.09578     0.22677    -1.92239
H     -2.00736     0.72589     1.69660
O     -2.90802     0.47746     1.36087
H     -3.49158     1.18986     1.61724
