  9
-229.450227781222
H      0.51618    -3.33727    -0.64538
O      0.85090    -2.63859    -0.08304
H      0.43618    -1.82311    -0.39521
H     -0.24540     0.91094     0.22327
O      0.06939     0.01136     0.06241
H      0.52702    -0.26129     0.86202
H     -1.63711     2.75101    -0.36659
O     -0.85583     2.69625     0.18796
H     -0.19693     3.23153    -0.25926
