 27
-688.4324415325874
H      2.08598    -1.49108     1.03940
O      2.80716    -1.19606     1.63560
H      3.56044    -1.76664     1.48595
H     -0.70960    -0.53268    -2.50545
O     -0.82391    -1.43651    -2.17759
H     -1.70112    -1.45820    -1.76028
H     -1.44208     0.51155     1.58507
O     -0.91329    -0.11692     2.09020
H     -0.12086     0.37587     2.34926
H     -0.62923     1.44370    -0.16946
O     -1.60322     1.46456    -0.22850
H     -1.76405     1.65947    -1.15741
H      1.33614     0.33938    -0.34109
O      1.17047     1.29595    -0.31723
H      1.38792     1.54662     0.59256
H      2.19820     0.30935     2.24442
O      1.65162     1.11259     2.38011
H      1.95427     1.54762     3.17628
H     -2.56402    -0.09953    -0.31637
O     -2.92678    -0.99577    -0.42900
H     -2.83470    -1.42017     0.42730
H      0.49001     1.47185    -2.10551
O     -0.20416     1.28340    -2.75783
H      0.14962     1.51720    -3.61671
H     -0.04915    -1.30223     0.79156
O      0.61145    -1.52029     0.11074
H      0.13869    -1.60455    -0.74814
