 18
-458.9440906522836
H     -0.46215    -0.75762     0.88438
O     -0.39131    -1.59721     0.41095
H      0.56085    -1.79599     0.42005
H      2.38750    -0.68041     0.67782
O      2.35976    -1.64877     0.53885
H      2.89560    -2.03391     1.23359
H     -1.26435    -1.30896    -1.06164
O     -1.76280    -0.95993    -1.83777
H     -1.47785    -1.46715    -2.59793
H      2.32909     1.64100     0.17620
O      2.10905     1.05004     0.89767
H      1.15111     1.14829     1.03799
H     -1.21679     1.41955     1.88992
O     -0.63091     1.18850     1.16898
H     -1.08603     1.45149     0.33602
H     -1.67486     2.22288    -1.91742
O     -1.86019     1.66157    -1.16461
H     -1.90432     0.74049    -1.50657
