 27
-688.4331476703869
H      3.03406    -2.55450     1.41980
O      3.03822    -1.89960     0.72095
H      2.35980    -2.17547     0.07744
H      0.09237    -2.36862    -0.46416
O      0.92477    -2.38117    -1.00280
H      0.87398    -3.15885    -1.55717
H      0.02260     0.18234     1.55426
O     -0.93530     0.08060     1.70532
H     -1.29730     0.97232     1.79801
H     -1.02705     2.66915     0.25075
O     -1.84002     2.51656     0.78135
H     -2.08797     3.36190     1.15572
H      0.80581    -0.64856    -1.83665
O      0.53344     0.28018    -1.82052
H     -0.43233     0.26449    -1.70750
H      1.36898     0.39063    -0.19114
O      1.63347     0.47845     0.74422
H      2.27157    -0.23838     0.90288
H     -1.91812    -1.74809    -0.31417
O     -1.37182    -2.24744     0.30479
H     -1.28923    -1.64702     1.06330
H      1.10379     2.39588     0.15365
O      0.51296     2.78948    -0.50165
H      0.62618     2.22407    -1.27717
H     -1.76698     0.28168     0.02267
O     -2.11519     0.22758    -0.88607
H     -2.55465     1.07174    -1.00746
