 27
-688.4286624550714
H      1.43258     0.26500    -0.16351
O      1.15953     0.41291    -1.08139
H      0.78936    -0.44520    -1.36988
H     -0.35023    -2.36655    -0.65898
O     -0.21061    -1.88996    -1.51090
H     -1.08914    -1.75522    -1.86939
H      1.45777     0.45968     2.34741
O      1.23047    -0.22569     1.71847
H      0.25193    -0.28407     1.71278
H     -0.42820     3.57276    -1.57213
O     -1.33167     3.76403    -1.24523
H     -1.27433     4.56941    -0.73080
H      1.68833    -1.98214     2.11777
O      1.63852    -2.93541     2.29796
H      2.44544    -3.31326     1.94740
H     -1.73141     2.06185    -0.81740
O     -1.62692     1.10260    -0.67977
H     -0.74187     0.90788    -1.02194
H     -1.14575    -2.23730     1.27773
O     -0.73890    -3.01687     0.87801
H      0.04696    -3.19368     1.41984
H      1.34167     2.91925    -3.04028
O      1.14146     2.96043    -2.10378
H      1.25281     2.05248    -1.75970
H     -1.61290     0.19622     0.72995
O     -1.46339    -0.35266     1.54207
H     -2.12002    -0.09128     2.18862
