 27
-688.4316033178038
H      1.99292    -2.08963     0.16247
O      2.13704    -1.27320     0.67154
H      1.40255    -1.26899     1.29869
H      0.21775    -2.75874    -0.92411
O      1.05728    -3.25216    -0.85328
H      0.83683    -4.17827    -0.74979
H      0.33003     0.34920     1.91307
O     -0.41056    -0.25217     1.69332
H     -1.17882     0.32074     1.56844
H     -1.08115     2.24755     0.39008
O     -1.95014     1.98821     0.75337
H     -2.22759     2.66793     1.36663
H      0.41816    -0.45880    -1.67346
O      1.18465     0.13149    -1.58293
H      1.74899    -0.29363    -0.91356
H      1.58365     1.89781     1.11548
O      1.82742     1.29392     1.82864
H      2.37643     0.61212     1.41836
H     -1.83261    -1.02453    -0.99868
O     -1.00824    -1.48337    -0.76142
H     -0.78174    -1.18618     0.13962
H      0.79463     3.13793    -0.96964
O      0.50223     2.41056    -0.42099
H      0.72223     1.57748    -0.91748
H     -2.78679     0.94286    -0.48752
O     -3.06705     0.31275    -1.17061
H     -3.15551     0.81857    -1.97837
