 27
-688.4385289438846
H      1.88707    -2.70224    -1.80226
O      1.80025    -2.72987    -0.84828
H      0.83360    -2.69204    -0.65433
H     -0.80353    -1.71348     0.52985
O     -0.77476    -2.31727    -0.22588
H     -1.23570    -1.84856    -0.93736
H      1.58463    -0.89456     1.42524
O      2.15263    -0.57745     0.71548
H      2.26486    -1.36471     0.14655
H      0.24057     2.10745    -0.78155
O     -0.12941     2.82468    -0.20984
H      0.02414     3.65811    -0.65405
H     -1.94913     0.52726     0.87225
O     -2.32210     1.08168     0.17232
H     -1.75468     1.86551     0.13950
H     -0.94889    -0.75076     2.79156
O     -0.67893    -0.44090     1.92528
H     -0.08849     0.34183     2.06401
H      0.63967     2.22907     1.35025
O      1.01840     1.60356     1.98709
H      1.74689     1.17434     1.51532
H      1.28360     0.18996    -0.72428
O      0.79191     0.64117    -1.43187
H      0.07468     0.06535    -1.73260
H     -2.50428    -0.49536    -2.62837
O     -1.82165    -0.45145    -1.95965
H     -2.13542     0.16294    -1.25243
