 27
-688.4329477909442
H      3.55297    -0.31781    -0.53616
O      2.63018    -0.48922    -0.35636
H      2.31834     0.22041     0.27702
H      1.72969    -1.97846     0.14916
O      0.90877    -2.50000     0.22474
H      1.14149    -3.37120     0.54360
H      0.10832    -1.52680    -1.23072
O      0.20694    -0.71329    -1.74650
H      1.13636    -0.47455    -1.60604
H     -0.59640     0.66139    -0.65254
O     -0.92099     1.21605     0.07518
H     -1.69817     1.67090    -0.29373
H      1.51584     0.91671     2.17315
O      1.61488     1.31292     1.28693
H      0.71229     1.50572     0.98156
H      0.73678     0.08800     4.44597
O      1.05394    -0.14148     3.57240
H      0.28689    -0.51184     3.07991
H     -0.33733    -1.52223     1.25133
O     -0.84690    -0.95111     1.84351
H     -1.06935    -0.16207     1.32300
H     -1.33372     0.78728    -4.08383
O     -1.75914     0.36992    -3.33336
H     -1.05407    -0.10522    -2.85509
H     -2.60115     1.43624    -2.20891
O     -2.96207     2.02991    -1.51718
H     -3.89816     1.83740    -1.44836
