 27
-688.4371007190894
H      2.75597    -1.56094    -1.35063
O      2.00587    -0.98323    -1.22115
H      1.18529    -1.54429    -1.24083
H     -0.69917    -2.21860    -0.20925
O     -0.40323    -2.04575    -1.12126
H     -0.94016    -1.30833    -1.44875
H      1.23924     1.29320     0.86931
O      1.13591     0.35330     1.08940
H      1.51266    -0.14945     0.34945
H      1.28785     3.69714    -0.14052
O      0.82793     2.86164    -0.08620
H      0.88149     2.43198    -0.97606
H     -0.81132     0.72888     0.94165
O     -1.46544     1.37471     0.63636
H     -0.93484     2.17082     0.48705
H     -0.83997    -1.90504     2.17383
O     -1.16962    -2.52577     1.49389
H     -1.06461    -3.40238     1.86423
H     -0.69037    -0.02269     3.53022
O     -0.11456    -0.73170     3.23835
H      0.49406    -0.32931     2.58768
H      1.41809     0.57694    -2.07031
O      0.86345     1.34380    -2.27820
H     -0.03295     0.98740    -2.35777
H     -1.78674     0.74036    -0.91784
O     -1.72303     0.33538    -1.81462
H     -2.59293     0.37206    -2.21098
