 27
-688.4307796189936
H      1.61157    -1.57030    -1.63194
O      1.99094    -1.37552    -0.76534
H      1.79943    -0.43422    -0.65795
H     -0.60109    -1.46792    -2.75983
O      0.30697    -1.18508    -3.01459
H      0.38483    -1.28084    -3.96310
H     -2.15423     1.19711     3.26202
O     -1.73408     1.33926     2.41350
H     -0.77953     1.20998     2.55113
H     -2.13538    -1.22517    -1.25372
O     -2.13979    -1.77447    -2.06553
H     -2.38083    -2.65725    -1.78289
H      0.38905     0.38779    -2.04423
O      0.32551     0.94910    -1.25634
H     -0.46992     0.65099    -0.78189
H      0.97805    -1.76018     0.68511
O      0.34662    -1.61161     1.41430
H      0.67913    -0.82628     1.86902
H      1.17651     2.19095    -0.30160
O      1.55284     2.72492     0.42574
H      1.18090     3.60238     0.33461
H      1.64752     1.13139     3.18439
O      1.04159     1.00412     2.45334
H      1.29088     1.64487     1.75114
H     -1.10735    -0.98605     0.67626
O     -1.76609    -0.39293     0.24624
H     -2.01380     0.24455     0.93822
