  9
-229.45120068219018
H      1.36665    -2.53644    -0.90535
O      1.21116    -2.20314    -0.01925
H      1.99823    -1.69471     0.19036
H     -0.26235    -1.00728     0.06454
O     -0.94419    -0.31879     0.04371
H     -1.28433    -0.26895     0.93939
H     -0.43005     1.41461    -0.04242
O     -0.22005     2.35098     0.10294
H     -0.81366     2.84643    -0.46246
