 27
-688.4303851887566
H      1.70210    -2.44152    -1.37015
O      1.26102    -2.65206    -2.21135
H      0.93361    -3.54865    -2.12484
H      2.29281    -0.70049    -0.02459
O      2.39292    -1.66854     0.16358
H      3.23688    -1.80219     0.59378
H     -1.98715     0.71739     1.90414
O     -1.65544     0.05953     2.53903
H     -2.38599    -0.52302     2.75111
H     -1.73602     2.06026    -0.24027
O     -1.95599     2.13936     0.71811
H     -2.57213     2.86808     0.79870
H      0.87921     0.53595    -0.96107
O      1.62506     0.80400    -0.40507
H      1.25419     1.16268     0.42641
H      0.12443     1.05593     2.50682
O      0.53560     1.71293     1.93574
H     -0.22822     2.18929     1.58472
H     -0.52844     2.41028    -2.15647
O     -1.32944     1.96037    -1.88017
H     -1.15152     1.00300    -1.98887
H     -0.71162    -1.01591    -0.83555
O     -0.57097    -0.63474    -1.72564
H     -0.01139    -1.29188    -2.17446
H      0.59526    -1.76559     0.81706
O     -0.36876    -1.69108     0.79811
H     -0.62672    -1.06208     1.48802
