 27
-688.4315895368163
H      1.93874    -0.18016    -1.06316
O      1.49474     0.04410    -1.89132
H      0.64564    -0.42528    -1.84847
H      1.49446    -1.95162     0.72852
O      0.80507    -2.63778     0.67540
H      1.22745    -3.48769     0.55633
H     -1.79338    -1.28616    -0.88013
O     -0.86037    -1.18722    -1.13919
H     -0.40827    -1.88208    -0.63796
H      1.14974     1.70756    -2.03959
O      0.86740     2.64773    -2.12748
H      0.36306     2.68889    -2.94048
H      2.94816     0.03698     1.36005
O      2.21111    -0.29835     0.84984
H      1.42758     0.26648     1.03209
H     -0.52495     0.50377     0.10036
O     -0.19920     0.91153     0.91787
H     -0.21793     1.88098     0.79625
H     -0.85696    -0.52147     2.02496
O     -1.20363    -1.41342     2.17665
H     -0.51558    -1.99512     1.82520
H      0.51091     4.24713     0.60482
O     -0.05684     3.55488     0.26558
H      0.27251     3.33966    -0.63409
H     -3.89805    -1.06322     0.50358
O     -3.14539    -1.61547     0.29057
H     -2.54922    -1.59152     1.07364
