  9
-229.4587730224524
H      1.80663    -1.73922    -0.26267
O      1.46274    -1.02760     0.27739
H      0.51209    -1.20460     0.37843
H     -1.99599    -0.86351    -0.45812
O     -1.31185    -0.62171     0.16644
H     -0.98866     0.25248    -0.11410
H      1.07718     0.75323    -0.28966
O      0.44149     1.46308    -0.48534
H      0.64912     2.16656     0.13073
