 27
-688.4399390880242
H      2.17915    -1.79370    -1.75041
O      1.56651    -1.12696    -1.44279
H      0.67173    -1.55969    -1.36851
H     -1.15731    -1.97762    -0.22676
O     -0.93172    -1.94812    -1.17672
H     -1.42762    -1.19983    -1.53882
H      1.65095     1.06043     0.90623
O      1.57012     0.11204     1.09009
H      1.71657    -0.34121     0.24365
H      1.55183     3.50782    -0.01360
O      1.12910     2.65386     0.05395
H      0.99803     2.31064    -0.86677
H     -0.40205     0.50047     1.04939
O     -1.09408     1.15439     0.86449
H     -0.58290     1.96516     0.72622
H     -1.95516    -0.75223     1.57049
O     -1.60754    -1.64295     1.47394
H     -0.91206    -1.71076     2.14971
H      0.68795    -1.04002     3.97902
O      0.58214    -1.44105     3.11703
H      1.08655    -0.89231     2.48677
H      1.10751     0.53854    -2.10835
O      0.66373     1.39012    -2.24004
H     -0.27523     1.17225    -2.32091
H     -1.83950     0.88202    -0.75177
O     -1.98562     0.63828    -1.68867
H     -2.88576     0.87188    -1.91221
