 27
-688.4265219185942
H      2.99764    -0.58663     2.29084
O      3.02591    -0.51859     1.33683
H      2.88586     0.41851     1.12765
H     -1.40690    -2.80202    -0.75972
O     -0.63007    -2.98384    -1.32867
H     -0.94745    -2.96002    -2.23299
H     -0.94806     0.58032     1.71423
O     -1.13722    -0.36317     1.56062
H     -0.30288    -0.70381     1.21273
H      0.71166     1.94618     1.21059
O     -0.10952     2.15839     1.68907
H     -0.50549     2.87333     1.18403
H     -0.04947     3.32663    -2.41689
O     -0.01048     2.96804    -1.52935
H     -0.53385     2.13939    -1.52973
H      0.60978    -1.82144    -0.79493
O      0.99781    -0.99723    -0.44315
H      1.76873    -1.21210     0.10839
H     -3.19948    -2.75293     0.91724
O     -2.65996    -2.22001     0.33361
H     -2.23137    -1.53623     0.88597
H      1.73461     0.77532    -0.54770
O      1.93826     1.62542    -0.13053
H      1.47095     2.27979    -0.67610
H     -0.40588    -0.03180    -1.08483
O     -1.18446     0.51023    -1.29198
H     -1.81542     0.30162    -0.59652
