 30
-764.9146481476527
H     -5.17995     2.05359     1.02701
O     -4.65191     2.32354     0.27547
H     -4.31171     1.50084    -0.12905
H     -0.80732     2.30232     0.77492
O     -0.07669     1.67996     0.93594
H     -0.46910     0.79779     0.89437
H      0.86155    -3.02683    -0.32626
O      0.38689    -2.33485    -0.82072
H      1.08027    -1.72969    -1.12141
H      2.76397    -3.36420     0.65503
O      2.01723    -3.99630     0.63594
H      2.39256    -4.84759     0.40792
H      2.38051     0.45036    -1.01322
O      2.46768    -0.45242    -1.39802
H      2.77699    -0.33419    -2.29731
H     -3.06068     3.05463     0.42462
O     -2.14930     3.40272     0.34841
H     -2.11525     3.80019    -0.52324
H      2.77252     2.71283     0.06283
O      2.27385     1.99647    -0.32803
H      1.41078     1.95854     0.15597
H      3.99846    -1.39203     1.20988
O      3.84274    -1.97218     0.46308
H      3.40545    -1.42198    -0.21329
H     -2.55284    -0.10892    -0.17891
O     -3.28778     0.20356    -0.73855
H     -3.04808    -0.01367    -1.64016
O     -1.24349    -0.91536     0.72540
H     -0.66838    -1.48612     0.14828
H     -1.38438    -1.40847     1.53335
