 30
-764.9271641874975
H     -3.97986    -0.05331    -0.91018
O     -4.03600     0.92628    -0.90589
H     -4.46625     1.18206    -1.72271
H      3.08895     1.29245    -0.54231
O      3.81539     0.87398    -0.05473
H      4.04819     0.11139    -0.58850
H      1.82089    -2.67296     1.51273
O      1.41103    -1.90443     1.11776
H      1.75190    -1.12055     1.61783
H     -0.02262     2.74784     2.28514
O      0.24898     1.96078     1.81188
H     -0.50522     1.66499     1.25864
H      1.73019     0.91446     2.31801
O      2.43175     0.24903     2.29937
H      3.05377     0.53452     1.61087
H     -2.36448     1.23053    -0.38860
O     -1.44405     1.06443    -0.10988
H     -1.32711     0.09954    -0.16873
H      1.53716    -0.06216    -1.46593
O      1.58532    -1.02299    -1.58648
H      1.80321    -1.37737    -0.71179
H     -0.27329    -1.93098     0.24334
O     -0.84477    -1.70010    -0.50891
H     -0.19789    -1.54926    -1.22559
H      1.22523     1.92196     0.12781
O      1.21152     1.68005    -0.81015
H      0.26079     1.61552    -0.98877
O     -3.57449    -1.75725    -0.83797
H     -2.60559    -1.85379    -0.76034
H     -3.96046    -2.35093    -0.19244
