 27
-688.430980564166
H      0.92027    -0.83348    -1.32589
O      1.37724    -0.00394    -1.11854
H      1.60427    -0.06064    -0.17936
H     -1.07096    -1.72410    -0.81098
O     -0.29427    -2.18229    -1.22619
H     -0.64296    -2.84861    -1.81629
H     -0.28606     1.14695    -0.66704
O     -0.73402     1.56862     0.08060
H     -0.59767     2.51911    -0.08023
H      0.70379     3.49266    -1.47247
O      0.09943     3.96228    -0.86197
H      0.58716     4.70162    -0.49795
H     -0.74715    -2.58134     2.11245
O     -1.65889    -2.34466     2.39630
H     -2.09568    -3.16401     2.63187
H      0.25619     0.69635     1.31568
O      0.99044     0.15831     1.67333
H      1.33550     0.61000     2.44265
H      1.05215    -1.71469     1.54834
O      0.81855    -2.62999     1.34186
H      0.63475    -2.62784     0.39206
H      1.53525     2.24673    -3.38320
O      1.69364     2.37928    -2.44767
H      1.68225     1.49463    -2.03487
H     -2.11226    -1.30229     1.00829
O     -2.16848    -0.87567     0.13283
H     -1.96070     0.05985     0.26368
