  9
-229.45877074399579
H      1.28705    -0.07791     0.20456
O      1.28231    -1.04942     0.25608
H      1.83463    -1.34571    -0.46838
H     -0.62214    -1.03029     0.08249
O     -1.45796    -0.55112    -0.05568
H     -2.07403    -0.90233     0.58747
H      0.21135     2.20825     0.70530
O      0.36503     1.58274    -0.00304
H     -0.47212     1.10095    -0.11482
