 27
-688.4317452436003
H      0.75616    -0.25643     3.64017
O      0.63784     0.15188     2.78280
H     -0.33042     0.22169     2.60483
H     -0.83796    -3.06634    -1.40468
O     -1.76901    -2.89224    -1.65700
H     -1.87325    -3.19115    -2.56081
H     -1.86718     0.40993     0.95814
O     -1.74386     0.85789     1.81286
H     -1.34860     1.71444     1.61259
H      0.84068     1.81437     1.88198
O      0.64008     2.46114     1.19291
H      1.34823     2.35854     0.54372
H      2.55467     2.08457    -1.80116
O      1.94691     1.68381    -1.18134
H      1.02672     1.86034    -1.49410
H      1.25932    -0.47832     1.12091
O      1.30979    -0.68384     0.17429
H      1.71600     0.07410    -0.27290
H      1.57025    -3.33425    -1.57816
O      0.86817    -3.13165    -0.95880
H      1.12502    -2.30151    -0.51049
H     -1.14416     1.32270    -1.18301
O     -0.66804     2.16094    -1.30432
H     -0.51802     2.51721    -0.41749
H     -0.53864    -0.62721    -0.41536
O     -1.45982    -0.41067    -0.63338
H     -1.81554    -1.22353    -1.03646
