  9
-229.45877419842998
H      1.49730    -1.86800     0.48161
O      0.83636    -1.58074    -0.14854
H      1.05794    -0.65892    -0.36470
H     -0.95402    -1.05220     0.25952
O     -1.64022    -0.36663     0.33250
H     -2.32055    -0.62127    -0.29197
H      0.82097     1.91943     0.16596
O      0.56219     1.20012    -0.41041
H     -0.33982     0.95331    -0.14093
