 27
-688.4324742027152
H     -1.95880    -1.13479     1.55272
O     -1.36055    -1.17686     2.34539
H     -1.71251    -1.84290     2.93560
H     -0.47334    -1.02293    -2.19335
O     -0.67154    -1.86705    -1.71101
H     -0.61479    -2.58297    -2.34271
H      2.46820    -0.43705     0.49633
O      3.34726    -0.05235     0.30039
H      3.97111    -0.77774     0.32128
H     -2.29412     0.09649    -0.10530
O     -2.59235    -0.81941     0.02494
H     -2.09367    -1.33105    -0.63171
H      2.88371     0.71231    -1.20133
O      2.52619     1.12026    -2.01587
H      2.84399     2.02362    -2.01863
H     -0.46395     1.86711     3.38998
O     -1.14703     1.58604     2.78043
H     -1.16701     0.61373     2.80269
H     -0.58944     1.14372    -1.88043
O     -0.13587     0.60062    -2.53968
H      0.81176     0.79411    -2.41865
H      0.39695    -1.43633    -0.21499
O      0.81045    -0.97463     0.53153
H      0.21720    -1.08331     1.28759
H     -1.09664     1.76726     0.96397
O     -0.92223     1.50517     0.04262
H     -0.09771     1.00001     0.10026
