 27
-688.4303662261178
H      3.16262     0.08956    -2.11945
O      2.57591    -0.16098    -1.40721
H      2.48008    -1.13673    -1.42551
H      1.21339    -2.60943    -0.41779
O      1.93873    -2.74969    -1.05792
H      2.42021    -3.52459    -0.76698
H     -1.50726    -0.68957    -1.04517
O     -2.07584    -1.18072    -0.42066
H     -2.43364    -0.50121     0.16891
H     -2.20602     3.08358    -1.30076
O     -1.62866     2.71105    -0.63425
H     -2.18397     2.17327    -0.04723
H     -0.24241    -2.72901     1.54489
O      0.03306    -2.16883     0.81972
H     -0.80134    -1.84572     0.37715
H     -0.04007     2.58713     0.95304
O     -0.04070     1.98332     1.70091
H      0.68102     1.33537     1.53253
H      1.23853    -0.74758     1.16960
O      1.76584     0.06398     1.22225
H      2.22461     0.11952     0.37339
H      0.74439     0.35836    -1.49026
O     -0.21244     0.44364    -1.58549
H     -0.47385     1.32119    -1.27244
H     -1.55239     1.21639     1.63234
O     -2.47324     0.97109     1.36877
H     -3.01810     1.06238     2.14940
