 15
-382.448119550154
H     -1.51004    -0.68894    -0.96228
O     -1.36641    -0.84801    -1.92094
H     -1.86527    -1.63471    -2.14346
H     -0.45715    -0.80954     0.95490
O     -1.36025    -0.51710     0.78228
H     -1.36515     0.34368     1.22015
H      0.15286     2.54688     2.36185
O     -0.19517     1.71898     2.03172
H      0.55822     1.21982     1.67911
H      0.36030    -0.52654    -1.99268
O      1.29069    -0.24630    -1.85923
H      1.37520     0.57762    -2.34148
H      1.48546    -0.17147    -0.15671
O      1.49041    -0.15472     0.82920
H      2.21344    -0.71064     1.11869
