  9
-229.4587827242676
H      1.20597    -0.05616    -0.00925
O      1.21457    -1.02816    -0.04747
H      1.73627    -1.24753    -0.82033
H     -2.09701    -0.93811     0.50623
O     -1.54272    -0.54087    -0.16577
H     -0.69522    -1.01799    -0.12851
H     -0.57761     1.12410    -0.13071
O      0.26320     1.60350    -0.03600
H      0.14564     2.19450     0.70782
