 27
-688.4268594609147
H      2.34924     0.80740     0.16711
O      1.67968     0.84782    -0.53141
H      0.94449     1.37426    -0.16793
H      1.74034    -2.23166     0.93716
O      1.13065    -1.86048     0.29596
H      1.48048    -0.96833     0.12437
H      0.24315    -1.49461    -1.64849
O      0.03415    -0.68595    -2.13057
H      0.72756    -0.05674    -1.86795
H     -1.33457     1.87703     0.01941
O     -0.65094     1.78561     0.69073
H     -0.83434     0.89485     1.04856
H      2.01459     0.18462     2.32809
O      2.82125    -0.00769     1.80076
H      3.57180     0.19546     2.35814
H     -0.16034     0.05194     2.95702
O      0.56409     0.66935     3.13377
H      0.26869     1.49883     2.74518
H     -1.87501    -0.72965     0.81966
O     -1.19945    -0.79514     1.51144
H     -0.49710    -1.35842     1.14853
H     -1.31625    -0.49583    -3.49446
O     -2.18463    -0.32543    -3.88645
H     -2.03702     0.31605    -4.58273
H     -2.92611    -0.07316    -1.61348
O     -2.30751     0.01209    -0.88341
H     -1.43718    -0.16884    -1.28806
