  9
-229.4587818422844
H      0.51112    -0.79971     0.22758
O      1.37901    -0.53565    -0.12271
H      1.60395    -1.18969    -0.78457
H     -2.12733    -0.69859     0.07918
O     -1.34468    -0.39680     0.54078
H     -1.18602     0.51228     0.23132
H      0.28833     2.57183     0.13649
O     -0.01811     1.86972    -0.43874
H      0.70573     1.22032    -0.46104
