 27
-688.428548752737
H      3.08198    -0.23814    -2.45656
O      2.49113    -0.32531    -1.70950
H      2.30373    -1.28048    -1.57751
H      1.26237    -2.51457    -0.08919
O      1.56071    -2.73903    -0.98994
H      0.78641    -3.06466    -1.45185
H     -1.43753    -0.96373    -0.61343
O     -1.83229    -1.42585     0.14352
H     -2.36040    -0.75037     0.59492
H     -1.48326     2.31727    -1.53624
O     -1.72449     2.93445    -0.83842
H     -2.44621     2.48984    -0.38376
H      0.38038    -2.24158     2.21628
O      0.49820    -1.83337     1.35881
H     -0.40728    -1.67612     0.98326
H     -0.27876     2.51535     0.56729
O     -0.14390     1.73667     1.12667
H      0.79504     1.45438     1.12099
H      1.79229    -0.42525     1.20140
O      2.20371     0.41576     0.94974
H      2.48007     0.28943     0.03147
H      0.66515     0.18025    -1.58607
O     -0.26006     0.32982    -1.35343
H     -0.25168     0.78349    -0.49108
H     -1.80120     1.19549     1.50250
O     -2.72508     0.88800     1.43791
H     -3.12467     1.01294     2.29909
