 30
-764.9216565331571
H      0.93135    -1.97802    -2.43155
O      0.28684    -2.28881    -3.11331
H      0.32772    -3.24465    -3.08170
H      0.74231     1.06357    -1.85765
O      1.69412     1.29782    -1.80939
H      1.94227     1.64050    -2.66794
H     -1.04031    -1.24835     3.29993
O     -1.57827    -1.95397     2.90075
H     -2.49260    -1.71636     3.05612
H      0.26271     0.99624     3.33110
O      0.30591     0.01895     3.44814
H      1.08266    -0.15950     3.98096
H     -0.63058    -1.67897     1.28457
O      0.02282    -1.13515     0.81372
H      0.37782    -0.57467     1.52152
H     -0.33132     3.30700     3.24084
O      0.32917     2.66524     2.97943
H      0.38213     2.71247     1.99619
H     -1.21386    -1.40322    -3.32739
O     -2.00935    -0.82940    -3.29027
H     -2.76998    -1.40973    -3.26410
H     -0.38366     2.17200    -0.14187
O      0.31792     2.69633     0.27156
H      1.08453     2.47953    -0.27511
H      2.15790    -0.52993    -1.32877
O      1.95738    -1.46509    -1.18084
H      1.40209    -1.47343    -0.38524
O     -0.87160     0.60196    -1.26432
H     -0.69098    -0.07984    -0.59369
H     -1.39399     0.18183    -1.97477
