 27
-688.4310463821623
H      1.08507     0.33942     1.35472
O      1.41895     0.39337     0.44199
H      2.08436    -0.30984     0.30956
H      0.48214    -2.37565    -1.66240
O      1.18264    -3.05833    -1.69780
H      0.74813    -3.90597    -1.59914
H     -2.10563     0.08298     0.94850
O     -1.92872    -0.84341     1.17813
H     -1.53758    -1.22263     0.37736
H      0.92105     3.35461    -0.81952
O      0.35062     2.60758    -0.63998
H      0.90607     1.87116    -0.30842
H      0.19283    -0.42002    -0.71281
O     -0.45413    -0.93439    -1.22858
H     -1.06803    -0.27377    -1.60403
H      0.21875    -0.31962     3.57613
O     -0.04136     0.15618     2.78613
H     -0.73637    -0.37822     2.33412
H      2.37990    -2.31399    -0.67476
O      2.99763    -1.76078    -0.14987
H      3.80303    -1.71174    -0.66626
H     -2.39780     1.57821    -1.05480
O     -1.86922     1.34450    -1.82339
H     -1.07409     1.88541    -1.71927
H     -1.29536     1.75430     1.90406
O     -1.72829     1.95569     1.06861
H     -1.04033     2.38017     0.53624
