 21
-535.435077299857
H      1.22631    -0.25945     0.82839
O      2.03787    -0.18915     1.37194
H      2.45728    -1.05022     1.34063
H     -2.39442     1.50874     0.95307
O     -1.96873     0.71968     1.29115
H     -1.18415     0.56759     0.72520
H     -2.17307    -2.15378    -0.38776
O     -1.62719    -2.17071    -1.20213
H     -2.24694    -2.14376    -1.93201
H      2.13160     1.81357    -1.29438
O      1.54521     1.52176    -2.02398
H      2.12740     1.21240    -2.71894
H      2.91949     2.78463     0.76514
O      3.06993     2.03966     0.18124
H      2.79416     1.24678     0.68792
H     -0.47518    -0.84229    -0.85072
O     -0.01062    -0.08990    -0.43818
H      0.42319     0.44038    -1.13279
H     -2.74734    -0.85895     1.24803
O     -3.03935    -1.78334     1.10083
H     -2.85865    -2.24500     1.92103
