 27
-688.4300095006628
H      0.97549     1.65910     2.25705
O      1.72469     1.09983     1.96096
H      2.41807     1.18202     2.61666
H     -1.19368    -3.39434    -1.06682
O     -2.07032    -3.07705    -1.37334
H     -2.72337    -3.64195    -0.95799
H     -1.83546     1.18569     0.20752
O     -1.56139     2.10071     0.36687
H     -0.99390     2.28195    -0.39255
H     -0.89409     2.52926     1.92501
O     -0.33685     2.69225     2.71847
H     -0.30658     3.64138     2.83716
H      2.15068     1.28458     0.06824
O      2.21741     0.95280    -0.83780
H      1.43538     1.28304    -1.30338
H      1.33402    -0.68198     1.22308
O      1.23467    -1.21234     0.41744
H      1.70263    -0.65585    -0.24463
H      1.09767    -4.03899    -1.00925
O      0.41237    -3.68969    -0.43789
H      0.76191    -2.85148    -0.07684
H     -0.70347     0.64269    -1.78630
O     -0.23875     1.45382    -2.08454
H     -0.37384     1.53699    -3.02900
H     -0.59926    -0.83635    -0.15702
O     -1.37340    -0.54614    -0.66805
H     -1.79412    -1.36754    -0.98884
