 27
-688.4338788344598
H      0.85972    -1.07573     1.30993
O      1.25536    -0.98532     0.43088
H      0.76206    -1.57738    -0.17469
H     -0.73952    -1.82438    -1.82680
O      0.11837    -2.24876    -1.67217
H      0.72204    -1.86682    -2.31663
H     -0.21135    -1.27954     3.68987
O     -0.14231    -0.77550     2.88026
H      0.04356     0.15984     3.11127
H     -2.17068    -0.49868    -0.67948
O     -2.15392    -0.70563    -1.64484
H     -3.05752    -0.77856    -1.95180
H      2.17005    -0.51694    -1.07065
O      2.26156    -0.31526    -2.01837
H      3.10501     0.12117    -2.13450
H      0.32740     2.01426     2.00964
O      0.39049     1.86787     2.97476
H      1.17944     2.32412     3.26778
H      0.66321     0.63278    -2.40772
O     -0.15292     1.15065    -2.34828
H     -0.87456     0.50926    -2.28181
H      0.82140     0.92031     0.30240
O      0.26608     1.71830     0.26562
H      0.03486     1.79366    -0.68372
H     -1.45943     0.84796     0.80755
O     -1.98424     0.03945     0.91639
H     -1.52022    -0.45244     1.60959
