 27
-688.4306862390223
H      0.64236     0.96441     0.72791
O      0.86165     0.99908    -0.21642
H      0.03615     0.71257    -0.63496
H      2.32944    -2.42712     0.22757
O      2.45359    -2.82416     1.11849
H      2.98557    -3.61164     1.00209
H     -1.50299    -1.11017    -0.83778
O     -1.04684    -1.96902    -0.94996
H     -1.63942    -2.55537    -1.41926
H      0.95245     2.62736    -0.85164
O      0.69944     3.50237    -1.21116
H      1.14248     4.15777    -0.67057
H      0.79312    -1.75858    -1.26008
O      1.73314    -1.54853    -1.16718
H      1.73928    -0.61601    -0.91141
H     -0.44348    -0.50801     2.13602
O     -0.65395     0.45993     2.14670
H     -0.77926     0.72210     3.05575
H      0.78988    -2.42293     1.69805
O     -0.13633    -2.12746     1.73582
H     -0.47598    -2.26292     0.83977
H     -1.03146     3.30895    -1.28279
O     -1.97730     3.04853    -1.30514
H     -2.29443     3.27732    -2.17959
H     -1.79559     0.59944     0.60012
O     -1.92908     0.49582    -0.35600
H     -2.07674     1.39311    -0.71184
