 18
-458.93981792142046
H      2.11803     2.45336    -0.32263
O      1.47906     2.01313    -0.88351
H      0.60630     2.17041    -0.46597
H      1.17071    -1.76117    -0.93550
O      0.86900    -2.48357    -0.34512
H      1.64561    -2.75972     0.14242
H     -2.17904    -2.32892     0.19663
O     -1.53251    -1.99293     0.81798
H     -0.65698    -2.17484     0.41551
H      1.67857     0.41672    -1.52739
O      1.76109    -0.47234    -1.93202
H      1.51513    -0.36079    -2.85068
H     -1.36767     0.31377     2.88517
O     -1.67455     0.44966     1.98847
H     -1.63919    -0.42998     1.55661
H     -1.70194     2.75624    -0.07556
O     -0.89457     2.46118     0.34599
H     -1.15836     1.74031     0.95570
