 21
-535.4396223062838
H     -0.54948     0.35815    -1.83740
O      0.36174     0.04522    -2.09187
H      0.29077    -0.30026    -2.98071
H     -1.81111     1.19422    -0.35909
O     -2.01774     0.73205    -1.18624
H     -2.28080    -0.15059    -0.85579
H      0.69100    -1.29546    -0.70983
O      0.61604    -1.82655     0.09471
H      1.00488    -1.27832     0.78666
H     -1.36243     1.58316     2.20223
O     -1.11985     1.05985     1.44032
H     -0.18402     0.81101     1.53484
H      1.95297     0.75142     0.89596
O      1.51186     0.36205     1.68400
H      2.14639     0.34619     2.39909
H      3.18357     1.17523    -1.19217
O      2.36844     1.24445    -0.69544
H      1.66041     0.88033    -1.26244
H     -1.16901    -1.79235     0.34068
O     -2.06967    -1.43681     0.45465
H     -1.94470    -0.71150     1.08032
