 27
-688.4363120791113
H      0.51779    -2.27906    -2.75529
O      0.91757    -2.59252    -1.94251
H      1.57516    -1.91823    -1.70517
H      2.26602    -0.00404    -0.25811
O      2.33695    -0.35811    -1.16807
H      3.11501     0.03254    -1.56788
H     -0.17694    -1.17165     1.75240
O     -0.00667    -0.44305     2.38174
H     -0.77654     0.13713     2.30875
H     -3.39122    -0.18735    -0.91778
O     -2.51841    -0.26237    -0.53403
H     -2.45895     0.34690     0.22474
H      2.81642     0.85936     1.92821
O      2.10040     0.76266     1.30239
H      1.35574     0.30583     1.78379
H     -0.00155     2.02258    -0.70860
O      0.14332     2.49427     0.13718
H      0.97238     2.13777     0.48793
H      0.58741     0.19107    -1.78163
O     -0.22197     0.70257    -1.91079
H     -0.95922     0.18967    -1.54789
H     -0.09388    -2.42987    -0.45177
O     -0.63014    -2.14397     0.30452
H     -1.40935    -1.71450    -0.07024
H     -1.17493     1.97624     1.04248
O     -1.91484     1.48370     1.48857
H     -2.41552     2.11348     2.00526
