  9
-229.4587813645435
H      1.49400    -1.79612     0.37562
O      1.22121    -1.10072    -0.22399
H      0.25485    -1.18623    -0.29567
H     -2.09875    -0.20265    -0.75689
O     -1.50243    -0.47468    -0.05905
H     -1.12070     0.34506     0.29897
H      0.75722     2.19775     0.21142
O      0.42294     1.43045     0.67649
H      0.99309     0.68806     0.40991
