 21
-535.4374893769118
H     -0.53923     1.50265    -0.30713
O     -1.34633     1.93407     0.00811
H     -1.01208     2.43963     0.76417
H      0.92768     1.92456     1.46124
O      0.53965     2.69520     1.91368
H      1.19624     3.39058     1.87206
H     -0.70122    -2.08924     1.66962
O     -0.65846    -1.77368     0.76635
H     -1.51208    -1.31488     0.58777
H     -3.57763    -0.26807    -0.32238
O     -2.83989    -0.29741     0.28665
H     -2.39699     0.58396     0.23027
H      3.40697    -1.09221    -1.67005
O      2.54253    -0.67987    -1.67806
H      1.88551    -1.40561    -1.72756
H      1.72061     0.23903    -0.37966
O      1.09769     0.49169     0.32407
H      0.63807    -0.32518     0.56794
H     -0.12790    -2.53820    -2.23313
O      0.56350    -2.55122    -1.56981
H      0.12220    -2.36489    -0.72268
