 27
-688.4308150820681
H      1.92855    -1.32687    -2.63604
O      1.48990    -0.94287    -1.87653
H      0.69126    -1.50052    -1.70093
H     -1.44749    -1.66505    -1.17864
O     -0.70570    -2.28222    -1.11984
H     -0.58465    -2.40756    -0.16881
H     -0.04037     0.98595     1.76826
O     -0.97105     0.88617     1.48451
H     -1.15283     1.73844     1.04102
H     -0.67311     2.51722    -0.95900
O     -1.01221     3.05354    -0.20677
H     -0.38184     3.76293    -0.07307
H     -0.52826    -2.34696     2.43645
O     -0.35555    -1.87049     1.62555
H     -0.72813    -0.97377     1.71901
H      2.07910     0.36578     1.55018
O      1.73899     1.17527     2.00033
H      2.25951     1.27604     2.79681
H      2.23590    -1.07742    -0.15427
O      2.30569    -1.16881     0.80862
H      1.48146    -1.59827     1.07650
H      0.49386     0.71329    -2.08476
O     -0.28108     1.28912    -2.13843
H     -1.02713     0.70367    -1.95126
H     -1.99775     0.19971     0.08723
O     -2.37125    -0.10109    -0.76303
H     -3.23573     0.29700    -0.85532
