 18
-458.9437340003271
H      1.01912    -1.42578     0.40448
O      0.25504    -1.44096     1.03150
H      0.10212    -2.35650     1.26321
H      0.10155     0.07780     1.99186
O     -0.03751     0.92875     2.44179
H     -0.36036     0.71996     3.31908
H      0.16275    -0.55582    -3.50838
O      0.51104    -0.22823    -2.67921
H     -0.26445    -0.09231    -2.08498
H     -1.26403     3.09541     0.40727
O     -1.63073     2.24493     0.65213
H     -1.04739     1.88751     1.35086
H      2.85288    -0.54688    -0.66936
O      2.19486    -1.22963    -0.80770
H      1.66416    -0.91990    -1.57495
H     -1.65154     0.79464    -0.41683
O     -1.46190    -0.06366    -0.83465
H     -1.09383    -0.59979    -0.12055
