 21
-535.4251142706325
H      1.72718     1.09112     1.23384
O      0.99563     0.58173     1.58925
H      0.72136     0.01885     0.84772
H     -0.91494     0.95105     1.58443
O     -1.70148     0.83975     1.02909
H     -1.30491     0.65648     0.16523
H     -1.29769    -3.55069    -0.81699
O     -1.55983    -2.66375    -1.06626
H     -2.16135    -2.34292    -0.35948
H      2.40107     1.31983    -1.31533
O      2.08497     0.90117    -2.12738
H      1.79781     1.61536    -2.69632
H      3.17462     2.97138     0.60803
O      3.18040     2.04724     0.35564
H      4.02447     1.70111     0.65046
H     -0.42472    -1.27001    -1.03432
O      0.00862    -0.43559    -0.77464
H      0.65765    -0.17615    -1.44342
H     -2.56070    -0.67629     1.09661
O     -3.03734    -1.52303     0.93798
H     -3.95802    -1.28300     0.82613
