  9
-229.4587812910449
H      1.64934    -1.28490    -0.83644
O      1.13248    -1.06454    -0.06058
H      1.14779    -0.09330    -0.00815
H     -0.77701    -1.00610    -0.15641
O     -1.61128    -0.50673    -0.19914
H     -2.18700    -0.90056     0.45665
H     -0.60422     1.13309    -0.13439
O      0.24628     1.59056    -0.02032
H      0.13127     2.17325     0.73049
