 18
-458.9436821838141
H     -0.52841    -0.76641     0.79434
O     -0.27275    -1.59195     0.36249
H      0.64139    -1.73693     0.66022
H      2.27174    -0.47304     1.31347
O      2.31814    -1.44970     1.27296
H      3.13216    -1.66296     0.81667
H     -1.73228    -1.87556    -2.43530
O     -1.16443    -1.15595    -2.15896
H     -0.78274    -1.42153    -1.29021
H      2.19542     1.80559     0.54671
O      1.87520     1.24623     1.25534
H      0.90413     1.26430     1.19139
H     -1.56619     1.41503     1.58647
O     -0.87425     1.15842     0.97640
H     -1.20135     1.34953     0.06679
H     -1.35499     1.98445    -2.25394
O     -1.71035     1.42797    -1.56045
H     -1.58081     0.50231    -1.86806
