 27
-688.4296427058994
H      2.76442     0.31255     0.87084
O      3.43881     0.72721     0.29913
H      3.86506     1.39491     0.83641
H      0.79138    -2.43193    -0.95416
O      1.02647    -2.74466    -0.06552
H      1.80332    -3.29307    -0.17221
H     -1.98013    -1.13904     2.58735
O     -1.56037    -0.49131     2.02251
H     -1.74649    -0.75266     1.08229
H      2.05700     1.04170    -0.98134
O      1.10790     0.97042    -1.18388
H      0.72611     0.74080    -0.32200
H     -1.28546    -1.23316    -1.18022
O     -1.94233    -0.84256    -0.59054
H     -2.03096     0.09014    -0.87968
H      1.16450    -1.30130     0.94845
O      1.19397    -0.42434     1.37854
H      0.34919    -0.33319     1.84021
H      0.24631    -1.37808    -3.27564
O      0.30895    -1.35906    -2.32100
H      0.68634    -0.48778    -2.06553
H     -0.78373     1.91631    -1.41561
O     -1.70049     1.83006    -1.13364
H     -1.71489     2.17242    -0.22366
H     -1.65864     1.32830     1.89137
O     -1.69865     2.25618     1.60583
H     -2.43346     2.65287     2.07367
