  9
-229.4587818790337
H      0.57632    -1.24971    -0.08035
O      1.51861    -1.01385    -0.02783
H      1.91534    -1.37357    -0.82208
H     -1.91208    -0.85280     0.52196
O     -1.26421    -0.74476    -0.17450
H     -1.00591     0.19258    -0.15405
H      1.02943     0.83162     0.06093
O      0.35655     1.53481     0.05375
H      0.54896     2.08955     0.81003
