 18
-458.94219964355347
H      1.70266    -0.33887     0.32165
O      2.14636    -0.34693    -0.54025
H      2.94466    -0.86324    -0.42983
H     -0.61413    -0.12111    -1.77290
O     -0.23603    -1.01555    -1.83528
H      0.69809    -0.88073    -1.61225
H     -2.26473    -1.47251     0.39659
O     -1.38339    -1.84927     0.42506
H     -1.00129    -1.68084    -0.47671
H     -0.68248     1.71531    -0.30505
O     -1.15346     1.50240    -1.13509
H     -1.07493     2.28251    -1.68533
H      0.82577    -1.13540     2.47787
O      0.51730    -0.56630     1.77389
H     -0.23198    -1.04377     1.33079
H     -0.44987     2.54406     1.86018
O      0.09759     2.10046     1.21182
H      0.30016     1.22391     1.57664
