 18
-458.939907038473
H      2.26100    -0.66881    -0.34590
O      2.09619    -1.59167    -0.62712
H      2.46358    -2.14864     0.05973
H      0.41753    -1.52711    -0.96907
O     -0.54770    -1.45237    -1.13207
H     -0.77334    -2.10723    -1.79294
H     -1.53174    -1.10863     0.47157
O     -2.00235    -0.50542     1.06699
H     -2.42355     0.09879     0.43694
H     -0.17259     1.63111     2.53636
O     -0.15418     1.35011     1.62215
H     -0.82458     0.63001     1.53860
H      1.33916     1.11686     0.70291
O      2.16235     1.00097     0.19411
H      2.28461     1.79891    -0.31965
H     -1.26866     0.35409    -1.36310
O     -1.73990     1.16403    -1.11716
H     -1.10283     1.64259    -0.57955
