  9
-229.45119803624058
H      1.80636    -1.90172    -0.16032
O      0.94667    -2.32841    -0.13218
H      0.94972    -2.82631     0.68800
H     -0.35325    -0.94371    -0.14503
O     -0.94415    -0.17952    -0.06593
H     -1.20964     0.03252    -0.96318
H     -0.23069     1.44472     0.29621
O      0.09507     2.35896     0.30229
H     -0.50457     2.84872     0.86637
