 27
-688.4354807364467
H      1.63780    -1.57007    -0.76124
O      2.26462    -1.36508    -0.04146
H      2.79195    -2.15033     0.10573
H     -0.43555    -2.11191    -1.15750
O      0.28182    -1.96697    -1.83521
H      0.12364    -2.59120    -2.54247
H      1.04075    -1.02389     1.46714
O      0.21258    -1.03156     1.96424
H     -0.08460    -0.11115     2.00577
H      0.05296     2.04604    -0.95782
O      0.39252     2.58247    -0.21501
H      1.30170     2.27378    -0.05436
H      3.64333     1.51214    -0.07436
O      2.80781     1.31569     0.34947
H      2.65162     0.36628     0.22475
H     -0.47895     2.04880     1.08023
O     -1.01284     1.56031     1.77168
H     -1.06785     2.12743     2.53981
H     -2.14959    -1.36750     0.05642
O     -1.50644    -2.09046     0.11379
H     -0.95219    -1.86770     0.89117
H     -0.32056    -0.10580    -2.09156
O     -0.75904     0.74162    -1.94804
H     -1.55055     0.54209    -1.42658
H     -2.27193     0.83081     0.75512
O     -2.76516     0.39732     0.03191
H     -3.61785     0.82498    -0.03603
