 21
-535.4381560092138
H      0.30161     1.64880     1.63691
O      1.28731     1.64246     1.55146
H      1.64139     2.15492     2.27683
H     -1.51403     1.42430     0.52365
O     -1.39678     1.59625     1.49229
H     -1.93610     0.94069     1.93631
H      0.73312    -2.31418     0.31692
O      0.12234    -3.06292     0.14200
H      0.66324    -3.74959    -0.24872
H     -0.44849     1.15530    -1.35955
O     -1.37631     1.00892    -1.13480
H     -1.53290     0.06156    -1.28711
H      1.65864    -0.38809    -0.46843
O      1.75488    -0.89604     0.34629
H      1.71783    -0.21173     1.02609
H      1.50730     1.79844    -0.25155
O      1.43603     1.53364    -1.18554
H      1.75658     2.26627    -1.71133
H     -1.06662    -2.25159    -0.84971
O     -1.69110    -1.72782    -1.39294
H     -2.52963    -2.18801    -1.35449
