 21
-535.4439560409849
H     -0.11493     1.51541    -1.51883
O     -0.18157     0.57666    -1.73411
H     -0.98002     0.32451    -1.21718
H     -1.88847     1.22070     0.31690
O     -2.18407     0.34334     0.03378
H     -1.86957    -0.26930     0.71189
H     -0.03791    -1.76037    -1.61528
O      0.37355    -2.30334    -0.93515
H      1.26443    -1.93357    -0.86474
H     -0.47852     3.27848     1.01110
O     -0.46993     2.49225     0.46583
H      0.17839     1.87193     0.87163
H      1.78748     0.27531     0.87651
O      1.13405     0.59846     1.50960
H      0.53473    -0.14734     1.65593
H      3.02173    -0.02713    -1.51008
O      2.30054    -0.28424    -0.93688
H      1.47192     0.07310    -1.32473
H     -0.87667    -2.24909     2.06141
O     -0.63449    -1.55161     1.45264
H     -0.32715    -1.97218     0.61794
