 27
-688.424880547859
H      1.91689    -1.09867    -1.36520
O      1.95986    -0.59080    -2.17969
H      1.21645    -0.93765    -2.68669
H     -0.31676    -1.81761    -1.45302
O     -0.59631    -1.74835    -2.38257
H     -1.23327    -2.44581    -2.53633
H      0.34951     1.48435     2.18652
O     -0.40602     1.48861     2.80027
H     -0.58299     2.40339     3.02256
H     -0.70329     1.38112    -1.66861
O     -1.53659     0.87270    -1.57808
H     -1.40168     0.08303    -2.11875
H     -1.33161    -1.49998     2.39064
O     -0.47818    -1.68048     2.80502
H     -0.28254    -0.84616     3.24299
H      1.26790     0.19070     0.54158
O      1.58260     1.03905     0.91353
H      2.51684     0.94531     1.10000
H     -0.52514    -0.84339     0.34835
O      0.33773    -1.30853     0.21609
H      0.44373    -1.73674     1.08023
H      1.18054     1.98231    -0.76524
O      0.94417     1.92127    -1.70013
H      1.43060     1.13481    -2.00533
H     -1.62391     0.63331     1.60489
O     -1.91781    -0.01115     0.94196
H     -1.94619     0.44063     0.07229
