  9
-229.45860890007862
H      1.47366    -1.60470     0.69402
O      1.11718    -1.14729    -0.06841
H      0.15319    -1.27087    -0.01684
H     -1.27225     0.33883     0.16692
O     -1.62031    -0.56502     0.11136
H     -2.19165    -0.56182    -0.65681
H      0.85484     0.74194    -0.07399
O      0.27614     1.51878     0.01645
H      0.84740     2.28418     0.07967
