  9
-229.45118873866767
H      1.22399    -2.72951     0.49217
O      1.41345    -1.90947     0.03486
H      0.63358    -1.34599     0.16187
H     -0.84621     0.58698     0.03074
O     -0.89561    -0.38091     0.02845
H     -1.08094    -0.62321    -0.88113
H     -0.70848     2.82070     1.00301
O     -0.55084     2.45920     0.12848
H      0.38713     2.59535    -0.02509
