 27
-688.4319404191326
H      1.65612     1.88814     0.67731
O      1.76766     2.71862     0.15650
H      2.70772     2.89978     0.14142
H      1.25840    -1.47632    -1.47271
O      1.46521    -1.70725    -0.54829
H      0.71803    -2.24104    -0.25809
H     -0.49177    -1.67895     3.43426
O     -0.73156    -1.13226     2.68672
H     -0.91736    -1.72301     1.92983
H      0.90354     2.16367    -1.21325
O      0.33380     1.80062    -1.92822
H      0.00758     2.54971    -2.42974
H     -1.93902    -2.91833     0.06408
O     -1.23227    -2.31960     0.30222
H     -1.39078    -1.47049    -0.18173
H      1.45402    -0.34568     0.57498
O      1.29506     0.33266     1.26603
H      0.64211    -0.04798     1.86584
H     -0.39289    -0.92850    -2.91713
O      0.55622    -0.79218    -2.96733
H      0.66180     0.15558    -2.79135
H     -0.92465     0.67916    -1.13301
O     -1.60852     0.10607    -0.74988
H     -1.89829     0.54101     0.07716
H     -1.65787     0.39636     2.29581
O     -2.00893     1.14720     1.79300
H     -1.36109     1.84744     1.89947
