  9
-229.45878029881382
H      0.22366    -1.19669    -0.06725
O      1.19063    -1.09252    -0.04478
H      1.48257    -1.59519     0.71666
H     -1.15607     0.43315     0.11908
O     -1.53366    -0.45597     0.00731
H     -2.14290    -0.39133    -0.72827
H      0.95875     0.79834     0.09193
O      0.38880     1.58417     0.16288
H      0.71266     2.20342    -0.49157
