 27
-688.4347668812943
H      2.48364    -1.06327    -1.29966
O      2.41390    -0.26872    -1.84497
H      1.73130    -0.51206    -2.47901
H      0.53241    -2.30666    -1.77734
O      0.03941    -1.85513    -2.48781
H     -0.52244    -2.50830    -2.90700
H     -2.26981    -0.73172     2.85352
O     -1.82095    -0.55986     2.02526
H     -2.04576     0.37123     1.77189
H      0.12311     0.98230    -0.37813
O      1.00188     1.30433    -0.10884
H      1.63504     0.91382    -0.74203
H     -0.04251    -0.87419     1.92137
O      0.89167    -0.95188     1.66368
H      1.13995    -0.06754     1.34849
H      0.42656     2.83439     0.65636
O     -0.19474     3.48814     1.02970
H     -0.01957     4.31893     0.58745
H      1.26050    -1.98883     0.44473
O      1.56067    -2.53830    -0.33022
H      2.05964    -3.27334     0.02397
H     -0.90387    -0.66013    -1.48391
O     -1.35526    -0.11765    -0.81901
H     -1.50551    -0.69164    -0.05566
H     -1.70109     2.50327     1.00465
O     -2.36412     1.79617     0.92781
H     -2.24786     1.43125     0.04097
