 27
-688.4312418884383
H      1.40177    -0.25974    -1.39039
O      0.53280    -0.07490    -1.76541
H      0.02283    -0.90912    -1.63770
H      1.69178    -1.77748     0.92021
O      1.08911    -2.49588     1.18878
H      1.61648    -3.22825     1.50592
H     -1.55775    -2.12913    -0.59129
O     -0.70095    -2.32983    -1.00640
H     -0.14620    -2.63622    -0.27643
H      0.19998     1.54700    -2.37796
O      0.06602     2.49301    -2.58169
H      0.63993     2.69319    -3.32177
H      3.22065     0.13915     0.82130
O      2.39483    -0.21452     0.49237
H      1.68439     0.42518     0.72427
H     -0.16997     0.84813    -0.05647
O      0.13365     1.21879     0.78670
H      0.12582     2.18630     0.64977
H     -0.52970    -0.05714     2.05802
O     -0.88884    -0.89698     2.37959
H     -0.22311    -1.55830     2.14599
H     -0.60602     4.38994    -0.09675
O      0.09596     3.74100    -0.16057
H      0.07613     3.40031    -1.08019
H     -3.54473    -0.93389     0.57518
O     -2.79243    -1.52432     0.56360
H     -2.21040    -1.26411     1.31411
