 27
-688.4227295010821
H      2.73336    -0.48383    -1.98975
O      1.90680    -0.34277    -1.53017
H      1.32421    -1.11174    -1.73526
H     -0.13016    -2.62225    -0.96378
O      0.02342    -2.19876    -1.83592
H     -0.82498    -1.89232    -2.15536
H      1.47372    -0.15437     0.26640
O      1.07919    -0.27148     1.14139
H      0.13922    -0.08166     1.02481
H     -0.50644     3.12244    -1.19617
O     -0.80840     3.97320    -0.80729
H     -1.23624     4.45654    -1.51420
H      1.63625    -1.73205     1.86005
O      1.80788    -2.67200     2.09504
H      2.74553    -2.81697     1.96943
H     -1.52993     3.44672     0.68977
O     -1.83794     2.97394     1.49493
H     -1.22013     3.22366     2.18452
H     -1.05103    -3.18504     1.16797
O     -0.32416    -3.37185     0.57361
H      0.48529    -3.23946     1.11145
H      0.60589     0.99004    -1.70360
O     -0.23915     1.45565    -1.64628
H     -0.75025     0.96434    -0.98604
H     -1.76371     1.34492     1.00795
O     -1.61793     0.45044     0.61132
H     -2.46184     0.00246     0.64319
