 27
-688.4296223835366
H      1.12518    -2.43432    -1.62923
O      0.80734    -2.62390    -2.52790
H      0.50315    -3.53198    -2.51664
H      1.72652    -0.94768     0.29789
O      1.47762    -1.89011     0.11398
H      2.02842    -2.43415     0.67792
H     -1.74032     1.05070     1.54483
O     -1.64800     0.38628     2.26196
H     -2.45185     0.42516     2.77971
H     -0.76367     2.05168    -0.25233
O     -1.55441     2.23604     0.28815
H     -2.27195     2.33229    -0.34034
H      1.64397     1.15132    -0.11934
O      2.07981     0.67041     0.59934
H      1.72613     1.05111     1.42263
H     -0.01312     1.13421     2.77887
O      0.79296     1.67401     2.81501
H      0.48709     2.57828     2.73769
H      0.71637     2.13816    -2.23741
O      0.41498     1.61065    -1.49793
H     -0.04430     0.81051    -1.87886
H     -1.31731    -0.83340    -1.50247
O     -0.96360    -0.49127    -2.34572
H     -0.39308    -1.21246    -2.66510
H     -0.39381    -1.84993     0.20487
O     -1.32460    -1.58972     0.16358
H     -1.48158    -1.09259     0.97537
