 30
-764.9193484933706
H     -4.59316    -0.90475    -1.59700
O     -3.64260    -0.78702    -1.59820
H     -3.48954     0.16508    -1.42329
H      2.86213     0.75026    -2.52447
O      2.98869     1.14256    -1.65981
H      2.70980     0.46629    -1.00942
H      0.25171    -3.50953    -0.94822
O      0.37280    -2.98254    -0.15890
H     -0.49860    -2.55120     0.04312
H     -1.75923    -0.76804     0.78393
O     -1.86228    -1.62134     0.33755
H     -2.51121    -1.45961    -0.37249
H      1.72506    -3.17824     1.08328
O      2.52307    -2.93467     1.58354
H      2.32460    -3.09889     2.50607
H      1.07519     2.40655     0.66982
O      0.82517     1.72188     1.31783
H      1.28864     0.92095     1.02389
H     -0.76196     1.32722     1.45326
O     -1.70371     1.00249     1.51227
H     -1.99557     1.18018     2.40616
H      1.31136    -1.22848    -0.23451
O      1.97130    -0.63877     0.16121
H      2.43635    -1.23287     0.77526
H      2.29059     4.07613    -0.63650
O      1.68102     3.34349    -0.73423
H      2.19077     2.62527    -1.16343
O     -3.02714     1.72629    -0.78486
H     -2.41163     2.31669    -1.22288
H     -2.61408     1.50631     0.07268
