  9
-229.4512051656048
H      1.77467    -1.85226     0.11912
O      0.93463    -2.29164    -0.03246
H      0.78548    -2.80897     0.76163
H     -1.01285     0.08278    -1.22587
O     -0.98888    -0.18602    -0.30517
H     -0.37509    -0.93563    -0.27224
H     -0.76705     2.78700     0.88645
O     -0.05890     2.30568     0.45724
H     -0.39134     1.40401     0.32067
