  9
-229.45878099705047
H      1.87784    -1.48318     0.17824
O      1.46955    -0.72395     0.59458
H      0.52398    -0.93883     0.66900
H     -1.86905    -0.96280    -0.41135
O     -1.30967    -0.54052     0.24102
H     -1.01963     0.29729    -0.16040
H      0.47787     2.34219    -0.13810
O      0.36032     1.53359    -0.63817
H      1.02092     0.91350    -0.28428
