 21
-535.4343092762363
H     -2.04848    -0.77412     0.63144
O     -2.13962    -1.75159     0.54957
H     -2.86933    -1.90553    -0.04985
H     -1.87469     1.49780    -0.07142
O     -1.81677     0.94278     0.72119
H     -1.05093     1.32584     1.16573
H      1.29586    -0.78731     0.86321
O      1.88260    -0.07155     0.58231
H      2.18517    -0.39559    -0.28039
H     -0.69833     2.75127    -2.05826
O     -1.06933     2.82629    -1.17924
H     -0.31871     2.80967    -0.56076
H      1.66375    -1.65892    -2.50563
O      2.08319    -1.72795    -1.64833
H      1.45590    -2.19875    -1.07373
H      1.20657     1.47919     0.76155
O      0.70153     2.31872     0.88633
H      1.12117     2.80260     1.59628
H      0.53600    -3.25366     1.04828
O      0.41387    -2.54407     0.41711
H     -0.54098    -2.30518     0.43559
