 27
-688.432465125638
H     -1.86655    -0.61106     1.90895
O     -1.19071    -0.56534     2.63638
H     -1.53339    -1.06527     3.37697
H     -0.80803    -1.34053    -1.91614
O     -1.02162    -2.05843    -1.26541
H     -1.09394    -2.87941    -1.75074
H      3.87479    -1.16979     0.04000
O      3.33447    -0.38477    -0.04737
H      2.45123    -0.61543     0.30727
H     -2.28276     0.32092     0.08508
O     -2.63825    -0.52125     0.41557
H     -2.26097    -1.19115    -0.17646
H      2.76917     0.18160    -1.59989
O      2.35529     0.50523    -2.42551
H      2.72551     1.37493    -2.57907
H     -0.79914     1.24981     2.71601
O     -0.69804     2.19338     2.50200
H      0.06908     2.51000     2.97987
H     -0.71112     0.84670    -2.01798
O     -0.37738     0.14938    -2.59895
H      0.59008     0.26796    -2.60459
H      0.23163    -1.47872     0.01971
O      0.76785    -0.93391     0.61741
H      0.26097    -0.83793     1.43535
H     -0.83556     2.02758     0.69016
O     -0.79179     1.58320    -0.17497
H     -0.01287     1.01204    -0.10060
