 21
-535.4317015826576
H     -0.31819    -2.67443    -1.59390
O      0.05521    -2.29691    -0.79799
H     -0.70069    -1.96099    -0.25643
H     -0.01831     2.80257    -0.01106
O     -0.84723     3.02878    -0.48716
H     -0.56898     3.26901    -1.37189
H      1.62641    -2.75834     0.07386
O      2.50290    -2.64082     0.47603
H      3.06882    -3.30978     0.09008
H     -2.05982     1.80307    -0.24269
O     -2.76016     1.13458    -0.08621
H     -3.49418     1.61205     0.30029
H      1.12784    -0.60229    -0.85449
O      1.89403    -0.11177    -0.53200
H      2.39316    -0.80610    -0.07678
H      1.67454     1.41604     0.24847
O      1.46054     2.26714     0.69651
H      1.60157     2.11763     1.63171
H     -1.70371    -1.21142     1.62344
O     -1.93931    -1.32512     0.70090
H     -2.24476    -0.44456     0.39249
