 27
-688.4332390658961
H      1.03459    -1.48193    -2.33091
O      1.72621    -0.83808    -2.06179
H      2.56434    -1.12197    -2.42638
H     -1.04207    -1.71178    -1.84992
O     -0.52144    -2.18046    -2.54803
H     -0.88435    -3.06212    -2.62102
H     -0.27687     1.47773     2.82204
O     -1.18347     1.22926     2.57786
H     -1.29556     1.59690     1.68891
H     -0.48086     1.80184    -1.12443
O     -0.63946     1.72492    -0.16558
H      0.21628     1.46454     0.19829
H     -1.01484    -1.97893     2.72944
O     -0.92455    -1.36686     2.00117
H     -1.11477    -0.45771     2.34622
H      2.21275     1.25114     3.41072
O      1.57816     1.45789     2.72537
H      1.70105     0.79871     2.01790
H      0.67902    -0.91806     1.01555
O      1.36642    -0.32404     0.67518
H      1.49200    -0.51431    -0.26601
H      0.74468     0.65192    -2.54101
O      0.04578     1.28856    -2.75919
H     -0.57726     0.80227    -3.30280
H     -1.54606     0.10753    -0.51743
O     -1.78888    -0.83083    -0.60167
H     -1.63526    -1.19999     0.28009
