 27
-688.441135498235
H     -0.27069    -3.54044    -0.87527
O     -0.07304    -2.63325    -0.64596
H     -0.15833    -2.09927    -1.47155
H     -0.89380    -0.40141    -2.69287
O     -0.11612    -0.97534    -2.76142
H      0.61568    -0.37837    -2.56710
H      0.90687     1.51784     1.99261
O      0.61437     2.26425     1.43533
H      0.96456     3.07283     1.80635
H     -1.97605     1.15942    -0.97345
O     -1.79106     1.08823    -1.94740
H     -2.34796     1.73100    -2.38587
H      0.93616     1.68754    -0.32133
O      0.91242     1.17216    -1.14187
H      0.01275     1.29057    -1.48380
H     -0.77476    -1.76882     0.87797
O     -1.08681    -1.16558     1.56764
H     -0.31019    -0.92932     2.09002
H      1.49126    -1.81473    -0.04619
O      2.06379    -1.06170     0.16428
H      1.75124    -0.33687    -0.40512
H      1.88610    -0.42728     3.28460
O      1.38804    -0.09829     2.53766
H      1.77987    -0.49838     1.71626
H     -1.76076     0.40003     1.02371
O     -1.91989     1.30635     0.68909
H     -1.14023     1.81092     0.96054
