 18
-458.94360218058796
H      0.87605    -1.67213    -0.04052
O      0.96834    -1.53535    -1.00519
H      1.47996    -2.26494    -1.35190
H      0.45507    -0.66515     1.85934
O      0.82836    -1.55123     1.69948
H      1.63116    -1.60165     2.21894
H     -0.03077     1.07206    -1.72670
O     -0.72403     0.47458    -2.05476
H     -0.29448    -0.38841    -1.97223
H      1.03637     1.20284     0.33866
O      1.46266     1.22388    -0.52818
H      1.61834     0.29436    -0.73639
H     -1.08826     0.78802     1.21771
O     -0.28376     0.94424     1.76594
H     -0.44577     1.73765     2.27571
H     -1.84971     0.48771    -0.76762
O     -2.32116     0.46702     0.10075
H     -2.94947    -0.25237     0.04832
