 27
-688.4342844732332
H      3.56920    -1.50039     0.40966
O      2.74897    -1.02455     0.53909
H      2.15388    -1.60743     1.06861
H      1.55371    -1.00269    -0.96289
O      0.72015    -0.87391    -1.43351
H      0.04148    -1.28147    -0.87505
H      2.55270     2.10199     1.17167
O      1.94651     1.56193     0.66624
H      2.31592     0.65879     0.62644
H     -1.04417     2.02759    -1.31352
O     -1.95334     2.01007    -0.90346
H     -2.37902     2.83672    -1.12451
H     -1.03320    -0.72679     1.02844
O     -1.20379    -1.59712     0.60463
H     -2.00367    -1.45532     0.06929
H      0.80177    -2.70803     2.70935
O      1.00122    -2.60677     1.77909
H      0.14903    -2.40364     1.33725
H     -1.25336     1.43251     0.76541
O     -0.68521     0.95410     1.38552
H      0.21665     1.25805     1.20436
H      1.10626     1.98215    -0.97595
O      0.53627     1.83162    -1.74416
H      0.57103     0.85876    -1.85407
H     -2.74086     0.37194    -1.01939
O     -3.15093    -0.51063    -0.99898
H     -4.09375    -0.37879    -0.90219
