 27
-688.4312625782942
H      0.76122     1.00686     0.87187
O      0.89119     1.01946    -0.08628
H      0.02625     0.72221    -0.41193
H      2.32974    -2.41620     0.09059
O      2.51949    -2.81774     0.96831
H      3.36063    -2.45697     1.24765
H     -1.52021    -1.06867    -0.75060
O     -1.05948    -1.91834    -0.90014
H     -1.65995    -2.50342    -1.36197
H      0.91258     3.04871    -2.56928
O      0.53521     3.24888    -1.71176
H      0.84734     2.54687    -1.11094
H      0.74881    -1.68044    -1.29734
O      1.69129    -1.47018    -1.23065
H      1.70109    -0.56730    -0.88431
H     -0.34308    -0.52525     2.21007
O     -0.57064     0.43313     2.30837
H     -0.79996     0.57807     3.22428
H      0.88307    -2.43216     1.64784
O     -0.03564    -2.12024     1.73194
H     -0.41516    -2.23875     0.84917
H     -1.21548     3.23639    -1.45313
O     -2.13922     3.06185    -1.17692
H     -2.41425     3.82585    -0.66870
H     -1.72435     0.62028     0.78641
O     -1.87298     0.53193    -0.16961
H     -2.08841     1.41774    -0.51971
