  9
-229.4481148802185
H      1.21912    -2.85365     0.60848
O      0.95234    -2.44986    -0.22030
H      0.03303    -2.70527    -0.32995
H     -0.03987     0.81384    -0.14195
O     -0.13679     0.08857     0.48242
H      0.41902    -0.62379     0.15246
H     -0.04379     3.40586     0.00205
O     -0.62445     2.71266    -0.31634
H     -1.05267     2.36764     0.47168
