 27
-688.4354192181186
H      1.90323    -1.31719    -2.83286
O      1.56704    -0.97655    -2.00460
H      0.71132    -1.44033    -1.80988
H     -0.50432    -2.41462    -0.30371
O     -0.71466    -2.01733    -1.16275
H     -1.34942    -1.30217    -1.00161
H      0.35626     0.64445     0.57654
O      0.36340     0.26004     1.46740
H      0.05198    -0.65138     1.39884
H      0.07012     2.86521    -0.27315
O     -0.32212     3.50935     0.34281
H      0.40572     3.91206     0.81755
H      2.14898    -0.57443     1.08746
O      2.55955    -1.33218     0.64438
H      2.43675    -1.15915    -0.30119
H     -1.62509     2.51928     1.13224
O     -2.08930     1.72279     1.45076
H     -1.37845     1.21107     1.86582
H      0.47301    -3.60626     1.73879
O      0.39520    -2.77459     1.27069
H      1.30380    -2.43498     1.09941
H      0.96746     0.69033    -1.55165
O      0.34700     1.33582    -1.18110
H     -0.54071     1.03700    -1.43168
H     -2.28539     0.78815     0.06064
O     -2.24449     0.30329    -0.80491
H     -3.06000     0.49241    -1.27021
