 27
-688.4293377234588
H      3.08337     0.33760    -2.11154
O      2.44996     0.04502    -1.45751
H      2.40893    -0.93564    -1.48627
H      1.36164    -2.50430    -0.37055
O      1.91351    -2.57185    -1.17275
H      1.44453    -3.14574    -1.77881
H     -1.53822    -0.86183    -0.91711
O     -1.91509    -1.48413    -0.27675
H     -2.45153    -0.93173     0.31793
H     -0.78792     2.48045    -1.26721
O     -0.91828     3.30234    -0.76560
H     -1.76834     3.65119    -1.03324
H      0.10367    -2.64315     1.77218
O      0.31685    -2.12666     0.99546
H     -0.54785    -1.90313     0.55621
H     -0.45557     2.43467     0.92157
O     -0.46830     1.58254     1.38311
H      0.44660     1.23984     1.46147
H      1.50817    -0.64279     1.27397
O      1.87306     0.25543     1.25161
H      2.24292     0.34432     0.36245
H      0.61799     0.45999    -1.43084
O     -0.32403     0.63281    -1.28746
H     -0.42273     0.84041    -0.34022
H     -2.09404     0.83832     1.56321
O     -2.92996     0.33829     1.50641
H     -3.29415     0.30203     2.39076
