 27
-688.4337697625374
H      0.61441     0.20646    -0.31685
O      0.56723     0.12219    -1.28507
H      0.73060    -0.81225    -1.49367
H      0.26900    -2.79255    -0.74534
O      0.96526    -2.59925    -1.42016
H      0.83766    -3.21231    -2.14367
H      0.20175     1.56773     1.32473
O      0.38794     0.64103     1.53224
H     -0.45647     0.23192     1.77705
H      0.41927     3.07516    -0.40553
O     -0.25284     3.05293     0.31232
H     -0.38299     3.94958     0.61945
H      1.48335    -0.82591     1.52401
O      1.74743    -1.74810     1.38701
H      2.01028    -1.80920     0.46272
H     -1.60880     1.96337    -0.40810
O     -2.05891     1.18783    -0.77575
H     -1.36862     0.75055    -1.29656
H     -1.28506    -2.05366     0.83881
O     -0.68226    -2.79263     0.66901
H      0.11843    -2.60049     1.18863
H      2.46859     2.65316    -1.69465
O      1.51273     2.61680    -1.65961
H      1.26236     1.67190    -1.71979
H     -2.30748     0.12157     0.53121
O     -2.18497    -0.48120     1.30710
H     -3.01058    -0.51312     1.78979
