 27
-688.4408625244346
H      1.88394    -3.67444    -0.76044
O      1.70261    -2.77046    -0.50987
H      0.73541    -2.62493    -0.66359
H     -1.28287    -1.75870    -0.10121
O     -0.86541    -2.16011    -0.87818
H     -0.83702    -1.45416    -1.54258
H      3.16780    -0.71015     1.34232
O      2.26537    -0.65225     1.02686
H      2.08432    -1.47899     0.53011
H      0.24768     3.69752     0.60614
O     -0.00138     2.77529     0.57346
H      0.60991     2.31966    -0.05928
H     -2.29829     0.66333     0.10454
O     -2.19877     1.38986    -0.52947
H     -1.62834     2.03429    -0.08533
H     -2.50612    -1.03500     1.98700
O     -1.89838    -0.68971     1.33403
H     -1.16179    -0.25012     1.82898
H      0.07900     1.50577     1.93464
O      0.15141     0.65643     2.39511
H      0.94757     0.23302     2.03861
H      1.86067     0.55869    -0.31008
O      1.49828     1.18805    -0.95276
H      0.91642     0.67824    -1.53614
H     -0.96948     0.32885    -3.31085
O     -0.73268     0.16724    -2.39878
H     -1.34501     0.69951    -1.83232
