  9
-229.45120141717618
H      0.83456    -1.29575    -0.10754
O      1.56127    -1.85446     0.21129
H      1.73822    -2.48283    -0.48960
H     -1.23324    -0.90523     0.22031
O     -0.72052    -0.43088    -0.43734
H     -0.78976     0.50455    -0.19302
H     -0.44561     2.89442    -0.48562
O     -0.68511     2.34504     0.26364
H      0.04700     2.44020     0.87741
