 27
-688.431817455975
H      2.35143    -2.18348    -3.25631
O      1.49590    -2.05260    -2.84615
H      1.57820    -2.35903    -1.92512
H      1.99762    -1.56420     0.11272
O      1.72217    -2.49153    -0.09900
H      2.37426    -3.06894     0.29859
H     -2.48816     0.81581     1.81597
O     -2.00575     0.13184     2.34009
H     -2.64635    -0.33629     2.87537
H     -2.06486     2.20672     0.24116
O     -2.92826     2.02361     0.68479
H     -3.59971     2.06260     0.00293
H      1.77576     0.41439    -0.54712
O      2.22304     0.09774     0.25485
H      1.70370     0.44026     0.99922
H      0.73410     1.72255     2.88743
O      0.51119     1.13870     2.16127
H     -0.34965     0.73033     2.36560
H      0.07571     2.09466     0.53208
O     -0.42262     2.39451    -0.23997
H     -0.09630     1.86406    -0.98321
H     -0.28851    -0.16147    -1.37277
O      0.37816     0.30505    -1.91192
H      0.75963    -0.38927    -2.47427
H     -0.31415    -1.81553     0.12013
O     -1.00927    -1.16559    -0.03212
H     -1.27973    -0.82855     0.82876
