 27
-688.433390105519
H      0.87462     0.57817     1.68018
O      0.81462     1.37186     1.10397
H      1.42898     1.16813     0.37703
H      1.92169    -3.30371    -0.35566
O      1.73480    -2.36655    -0.29394
H      0.91765    -2.21118    -0.79321
H     -1.93409    -0.90390     1.80295
O     -1.74288    -1.71480     2.31014
H     -2.29101    -1.68993     3.09521
H      1.04138     2.23974    -1.60690
O      0.29953     2.78369    -1.31052
H      0.36012     2.74218    -0.34559
H     -0.92814    -0.97562    -0.45776
O     -0.49561    -1.02863    -1.32479
H     -0.99032    -0.38739    -1.85820
H      1.31779    -1.62900     1.41250
O      0.96356    -1.12965     2.16081
H      0.07532    -1.48538     2.32625
H      2.57137    -0.24047    -1.02448
O      1.92012     0.41806    -1.27990
H      1.09276    -0.08851    -1.37092
H     -1.13043     1.97003    -1.79919
O     -1.87772     1.34471    -1.95210
H     -2.48284     1.76007    -2.56462
H     -2.15218     0.83329    -0.14316
O     -1.80515     0.49289     0.69404
H     -0.97083     0.97383     0.86168
