 27
-688.4246106242506
H      0.86439    -3.54401     1.51355
O      0.49363    -3.49557     0.63059
H      0.67853    -2.59255     0.30883
H      0.65390     1.78921    -1.96869
O     -0.20695     2.23701    -1.92112
H     -0.66024     2.05067    -2.74407
H      1.47772     2.59952     1.27249
O      1.97397     2.95816     0.50664
H      1.38764     3.59872     0.09597
H     -1.72493     0.33637     0.10428
O     -1.21481     1.11409     0.40010
H     -0.97797     1.60864    -0.40169
H      0.35950    -0.25250     0.36333
O      0.76882    -0.89477    -0.23710
H      1.36376    -0.36855    -0.78786
H     -0.01517     2.29837     3.18370
O      0.40088     1.87555     2.43253
H     -0.31584     1.59924     1.82621
H     -1.25727    -3.80796     0.45542
O     -2.22397    -3.81570     0.30310
H     -2.40522    -4.58644    -0.23683
H      3.19649     1.12128    -1.75121
O      2.30285     1.13592    -1.41170
H      2.29551     1.76248    -0.64389
H     -2.31410    -2.12318    -0.31277
O     -2.04331    -1.26108    -0.67203
H     -1.11146    -1.39023    -0.88966
