  9
-229.45877489666668
H      1.41318    -1.73334     0.84882
O      1.11714    -1.22993     0.08946
H      0.15437    -1.36345     0.05110
H     -1.27470     0.22274     0.23704
O     -1.62674    -0.67451     0.10810
H     -2.23137    -0.61450    -0.63168
H      0.54154     2.05701    -0.33773
O      0.23039     1.42053     0.30625
H      0.82688     0.65476     0.23508
