 21
-535.431462895954
H      1.22848    -1.39704     1.91185
O      1.49489    -1.70704     1.04454
H      0.71689    -2.18877     0.68790
H      2.95360    -0.15412    -1.23406
O      2.40429     0.24462    -0.55906
H      2.07719    -0.48742     0.01732
H     -1.50279    -2.41424     0.00980
O     -0.71960    -2.98859     0.15708
H     -1.05993    -3.81358     0.50299
H     -2.71045     1.81155     0.50032
O     -2.47950     1.18990    -0.18920
H     -1.57005     1.42726    -0.48275
H      0.59049     2.46398    -0.49542
O      0.04482     1.80884    -0.95412
H      0.67424     1.08852    -1.08093
H      2.45280     2.99806     1.26706
O      2.25961     2.87548     0.33778
H      2.53702     1.97087     0.11665
H     -2.78096    -0.51264    -0.19380
O     -2.94042    -1.47934    -0.24956
H     -3.41389    -1.61163    -1.07198
