 21
-535.4457711991598
H     -1.08091    -0.37442     1.78217
O     -0.67110    -1.26891     1.71785
H     -0.98274    -1.78862     2.45674
H     -1.97336     1.26258     0.63208
O     -1.57637     1.24566     1.51184
H     -0.75774     1.74473     1.38225
H      1.12019    -0.83398     1.17615
O      1.82324    -0.34674     0.72176
H      2.00699    -0.85765    -0.08698
H     -1.52358     1.63275    -2.19648
O     -1.37743     1.30066    -1.31068
H     -0.54828     1.69764    -0.98709
H      2.03809    -2.63009    -1.94782
O      1.81226    -1.75248    -1.63936
H      0.83176    -1.71746    -1.57143
H      1.25057     1.17292     0.35310
O      0.78946     2.03763     0.17865
H      1.45621     2.72136     0.21034
H     -1.08778    -0.55552    -1.19370
O     -0.81149    -1.47430    -1.06981
H     -0.84231    -1.61245    -0.11246
