 30
-764.9156487208439
H     -4.09277    -0.05726     0.07263
O     -4.17984     0.67690     0.71658
H     -4.83298     0.39082     1.35634
H      3.25715     2.99650     1.99691
O      2.97542     3.00131     1.08200
H      2.00315     3.05575     1.09191
H      0.79911    -3.41322     1.61855
O      0.80227    -3.13560     0.70256
H      1.62457    -2.61845     0.57302
H     -0.18937     3.30603     0.01108
O      0.28438     2.66387     0.54141
H     -0.38969     1.99836     0.84920
H      3.63006    -1.35209     1.07343
O      2.99583    -1.53474     0.38003
H      2.71111    -0.66672     0.03994
H     -2.42642     0.84706     1.07592
O     -1.45680     0.75593     1.13253
H     -1.23833    -0.03251     0.60674
H      1.02056    -0.49333    -3.37753
O      1.08590    -0.77341    -2.46620
H      1.68818    -0.14931    -2.03035
H     -0.41658    -2.15180    -0.10803
O     -0.89497    -1.45189    -0.59740
H     -0.29223    -1.19981    -1.31781
H      1.38125     1.32172    -0.44242
O      2.25953     0.96011    -0.64369
H      2.84300     1.58636    -0.18615
O     -3.60775    -1.36130    -0.97405
H     -2.63983    -1.46744    -0.85331
H     -3.77294    -1.42214    -1.91545
