 27
-688.4330991245616
H      2.60665     1.18530     0.68703
O      3.01946     1.95779     0.25679
H      3.20483     2.58946     0.95090
H      0.90562    -1.91331    -1.46196
O      1.13001    -2.36941    -0.61466
H      1.69057    -3.11663    -0.82163
H     -1.17396    -0.86118     3.40363
O     -0.96213    -0.44716     2.56773
H     -1.23639    -1.07500     1.85049
H      1.58113     1.91805    -0.99893
O      0.72348     1.53155    -1.23252
H      0.50438     1.01658    -0.44044
H     -0.58584    -2.27015     0.08617
O     -1.41218    -1.84611     0.36015
H     -1.59545    -1.16536    -0.31042
H      1.42223    -0.97543     0.60987
O      1.41106    -0.12653     1.08038
H      0.70460    -0.17658     1.74003
H     -0.66918    -0.70964    -2.52486
O      0.27712    -0.84614    -2.65915
H      0.67237     0.00722    -2.41893
H     -1.16122     1.07813    -1.50233
O     -1.82791     0.44338    -1.20250
H     -2.20062     0.86757    -0.41003
H     -1.77536     1.08616     1.84892
O     -2.23315     1.69570     1.24719
H     -1.81687     2.55202     1.34466
