 15
-382.4486424191944
H     -1.74262    -1.01724    -0.31135
O     -2.12245    -0.22330    -0.74430
H     -2.76046     0.12442    -0.11967
H      0.08745    -1.76034     0.55127
O     -0.78767    -2.20834     0.55879
H     -0.62300    -3.12627     0.34057
H      0.94953     1.89908     0.32789
O      1.48442     1.88536     1.13789
H      0.92651     2.24247     1.82911
H     -0.76482     0.77669    -1.08259
O      0.07434     1.27626    -1.20967
H      0.09664     1.57349    -2.11893
H      1.25357    -0.29494    -0.57698
O      1.49185    -0.76228     0.23319
H      1.69153    -0.01988     0.82279
