  9
-229.45877985782218
H      1.81122    -1.64988    -0.41525
O      1.10373    -1.43163     0.19156
H      1.22276    -0.49183     0.41123
H     -2.13739    -0.79694     0.22054
O     -1.46428    -0.47596    -0.38075
H     -0.71527    -1.08847    -0.28022
H     -0.32221     0.96962     0.13132
O      0.54014     1.30748     0.43040
H      0.74402     2.04873    -0.14028
