 18
-458.9423704910492
H      0.92862    -1.44929     0.49143
O      0.31801    -1.94513    -0.06013
H      0.61628    -1.75312    -0.96572
H     -1.72965     0.06426     1.11859
O     -1.86138    -0.22400     0.19800
H     -1.28921    -1.00911     0.10751
H      0.48277    -1.01417    -3.29524
O      0.96553    -0.77536    -2.50254
H      0.57982     0.06116    -2.19617
H     -1.00896     0.85221    -0.73861
O     -0.28075     1.37134    -1.18531
H     -0.64109     2.22853    -1.40829
H      2.23454     1.41870     1.00269
O      1.47014     0.84860     0.92839
H      1.00262     1.09564     0.11041
H      0.12093     0.70009     2.17055
O     -0.73602     0.58871     2.61548
H     -0.57705     0.02088     3.37043
