 18
-458.93569336373497
H      1.37346     0.31271     1.19344
O      1.65443     0.06186     0.29564
H      1.44820    -0.87815     0.21191
H      0.23745    -2.11716    -1.44848
O      0.33535    -2.32255    -0.50101
H      0.55513    -3.25111    -0.43139
H     -0.98788    -0.32150    -0.44380
O     -0.73435     0.53594    -0.80832
H      0.21826     0.57299    -0.55161
H      0.64586    -0.92819    -3.56685
O     -0.07155    -1.20059    -2.99276
H     -0.36227    -0.38851    -2.54615
H     -0.29924     1.40357     2.30359
O      0.47662     0.91477     2.64201
H      0.93175     1.51851     3.23001
H     -2.54328     1.99197     1.58406
O     -1.62142     2.17429     1.39420
H     -1.44886     1.77506     0.52360
