 21
-535.4263773440736
H     -0.19379     0.64030     1.76472
O     -0.64832    -0.23364     1.79376
H     -0.65841    -0.52278     2.70500
H      1.52531     1.91617     1.16331
O      0.63183     2.11634     1.51868
H      0.22889     2.70803     0.88144
H     -0.26298    -1.22155    -0.87395
O      0.60817    -1.41275    -0.49370
H      0.47198    -1.17252     0.43192
H     -5.04190     0.05026    -1.50168
O     -4.77125    -0.83293    -1.24322
H     -4.75849    -1.33572    -2.06015
H      3.65003    -1.26387    -1.09107
O      3.06241    -0.51654    -1.20316
H      2.15479    -0.86634    -1.04852
H      3.11118     0.83942    -0.13143
O      3.09212     1.61269     0.47494
H      3.60763     2.29500     0.04502
H     -1.81173    -0.41987     0.30337
O     -2.01503    -0.58839    -0.62460
H     -2.96682    -0.71913    -0.67650
