 27
-688.4324522633831
H     -1.84691    -1.25476     1.59715
O     -1.23500    -1.29446     2.37802
H     -1.47636    -2.06109     2.89755
H     -0.49146    -0.91650    -2.17979
O     -0.65188    -1.79099    -1.73888
H     -0.53618    -2.47425    -2.39812
H      4.02010    -0.70351     0.12814
O      3.39408     0.01965     0.15069
H      2.52920    -0.36896     0.39417
H     -2.25559     0.03444    -0.00646
O     -2.53434    -0.89045     0.10199
H     -2.05178    -1.36662    -0.59237
H      2.84143     0.87689    -1.26152
O      2.42894     1.35619    -2.00860
H      2.67631     2.27429    -1.89375
H     -1.16896     0.47781     2.89735
O     -1.20302     1.44946     2.90732
H     -1.97051     1.68963     3.42694
H     -0.66280     1.22393    -1.76093
O     -0.21816     0.73023    -2.46385
H      0.72620     0.95558    -2.37018
H      0.44243    -1.38006    -0.23904
O      0.87970    -0.93405     0.50356
H      0.32921    -1.08256     1.28498
H     -1.10990     1.70649     1.11270
O     -0.94465     1.48702     0.17822
H     -0.09013     1.03108     0.20214
