 27
-688.4305470694231
H      1.27348    -0.87419    -0.70424
O      1.73192    -0.29761    -1.34971
H      1.42907    -0.62836    -2.20241
H     -0.56071    -1.93058    -1.53332
O     -0.83762    -1.45560    -2.33576
H     -1.52785    -1.98342    -2.73801
H      0.09041     1.05098     2.18988
O     -0.33706     0.64705     2.98305
H     -0.53720     1.35423     3.59686
H     -0.82552     1.75145    -1.83894
O     -1.36738     1.18638    -1.26741
H     -1.30202     0.30997    -1.68214
H      0.59527    -0.92328     3.04804
O      1.12541    -1.70231     2.81006
H      2.00679    -1.54953     3.14956
H     -0.09970     1.55816     0.07064
O      0.66129     1.56878     0.68038
H      1.33875     1.03190     0.24963
H     -0.75376    -1.45603     0.50435
O      0.10155    -1.86882     0.25570
H      0.56769    -2.00236     1.09955
H      1.39417     2.89379    -2.41587
O      0.88996     2.09852    -2.59642
H      1.32900     1.37896    -2.10849
H     -1.74501    -0.02180     1.80384
O     -2.08566    -0.40322     0.98329
H     -2.11833     0.32173     0.34294
