 24
-611.9437509077795
H      2.95216     0.92420     1.49062
O      2.09468     0.57482     1.24923
H      2.17048     0.15412     0.36758
H     -1.39848    -1.40957    -0.93764
O     -2.07108    -0.79152    -1.30894
H     -2.75710    -1.31903    -1.71418
H      0.72440    -1.85276    -0.49868
O     -0.10398    -2.19839    -0.13714
H     -0.11492    -1.90351     0.78434
H      2.64758    -0.75217    -1.85227
O      1.95632    -0.56388    -1.21883
H      1.27028    -0.00582    -1.68737
H      0.73054     1.91269     0.70822
O      0.01246     2.28416     0.18248
H     -0.80202     1.88559     0.55160
H      0.00694     1.58442    -1.44715
O      0.01182     0.93911    -2.18672
H     -0.83356     0.46991    -2.12348
H     -2.26642     0.25882     0.23114
O     -2.02731     0.71198     1.05154
H     -1.50730     0.07479     1.55864
H      0.04714    -1.06168     3.21580
O      0.02520    -0.84065     2.28554
H      0.79489    -0.27647     2.08839
