  9
-229.45876835529128
H      0.52131    -1.22756     0.34140
O      1.47419    -1.05329     0.25538
H      1.79980    -1.69081    -0.38027
H     -1.94656    -0.80918    -0.49955
O     -1.29786    -0.62312     0.17958
H     -0.96927     0.27456    -0.00359
H      0.67185     2.14456     0.46636
O      0.46763     1.51411    -0.22539
H      1.10022     0.78494    -0.10502
