 27
-688.4298391676573
H     -0.21018    -0.19738    -4.14676
O     -0.71461     0.25852    -3.47357
H     -0.63888    -0.27684    -2.65593
H      1.46358    -2.20927     1.11615
O      1.13042    -2.84138     0.43468
H      1.72075    -3.59200     0.43205
H     -1.10734    -1.36148    -0.50571
O     -0.38590    -1.00675    -1.06624
H      0.34110    -1.61931    -0.87776
H     -0.47228     1.89092    -2.93568
O     -0.38531     2.81748    -2.62769
H     -1.18558     3.26350    -2.91052
H      0.99202    -1.00760     2.85618
O      1.75449    -0.99138     2.26337
H      1.63652    -0.15677     1.78297
H      0.12136     0.51901     0.11808
O      0.38213     1.01239     0.91429
H      0.55045     1.93056     0.62328
H     -1.62640     0.10321     3.36402
O     -0.95249    -0.32765     2.83766
H     -0.60985     0.33120     2.19965
H      1.63788     3.79836    -0.43459
O      0.77750     3.42669    -0.23990
H      0.35438     3.24484    -1.10742
H     -1.47304    -1.74161     1.71826
O     -1.60151    -2.33707     0.96575
H     -0.77754    -2.83934     0.91180
