 27
-688.4359892365109
H      0.95044    -0.61856    -1.20604
O      1.77472    -0.11224    -1.13802
H      2.06710    -0.23717    -0.22511
H     -1.38163    -1.01790    -1.02984
O     -0.63027    -1.65653    -1.20680
H     -0.89126    -2.18566    -1.95882
H      0.93391     0.81386     1.57517
O      0.07594     1.25896     1.57853
H     -0.05765     1.63546     0.69379
H      0.01963     2.33093    -1.52033
O     -0.70373     2.33886    -0.85782
H     -0.92700     3.25529    -0.68671
H     -1.27839    -1.42405     2.00310
O     -1.83412    -0.63579     1.98522
H     -1.19999     0.10926     1.99393
H      2.72951    -0.88953     2.23022
O      2.07478    -0.73350     1.55165
H      1.42097    -1.45549     1.59001
H      0.05777    -3.54233     1.30650
O      0.12107    -2.59214     1.21861
H     -0.14476    -2.35500     0.30457
H      1.42599     2.01067    -3.46302
O      1.41690     2.17457    -2.52020
H      1.71762     1.34596    -2.08517
H     -2.00807     0.96019    -0.63054
O     -2.46194     0.10526    -0.55307
H     -2.46272    -0.13167     0.39892
