 27
-688.4282543173455
H      0.70669     0.30846     3.30065
O      0.59884     0.56831     2.38586
H     -0.35140     0.42166     2.15877
H     -0.62682    -3.13648    -1.15312
O     -1.44521    -2.88484    -1.63590
H     -1.37691    -3.28326    -2.50409
H     -1.72960     0.25611     0.50970
O     -1.87821     0.63079     1.39961
H     -1.94708     1.58415     1.28255
H      0.27152     2.36466     1.89726
O     -0.25431     3.09464     1.52790
H      0.14296     3.90902     1.83496
H      1.90946     0.79402    -2.51095
O      1.61517     0.77068    -1.60047
H      1.01108     1.53688    -1.47234
H      1.55448    -0.50284     1.12972
O      2.01747    -1.02677     0.46163
H      2.13918    -0.41271    -0.27394
H      0.87131    -3.87678     0.52387
O      0.87333    -3.35640    -0.28067
H      1.29907    -2.50098    -0.04301
H     -1.03146     1.73092    -1.21635
O     -0.41709     2.47707    -1.16555
H     -0.43602     2.76830    -0.24152
H     -0.12757    -0.23399    -1.19666
O     -1.08921    -0.24900    -1.08691
H     -1.36575    -1.15237    -1.33905
