  9
-229.458773463444
H      1.47355    -1.52051    -0.95459
O      1.25252    -1.07753    -0.13444
H      0.29427    -1.20380    -0.02445
H     -2.01888    -0.48935     0.90057
O     -1.47852    -0.50239     0.11038
H     -1.12719     0.39921     0.01419
H      0.97698     0.81395    -0.11549
O      0.38494     1.58604    -0.08867
H      0.74883     2.17378     0.57367
