 27
-688.4294294129622
H      0.67648     0.73822     1.58670
O      0.50312     1.46143     0.96615
H      1.14480     1.32374     0.24041
H      1.13430    -3.45471     0.00611
O      0.78985    -2.63552     0.35788
H      0.34928    -2.15109    -0.37153
H     -0.68187    -2.55064     1.72232
O     -1.12952    -1.99013     2.36772
H     -0.39787    -1.49915     2.76161
H     -0.88829     3.80688    -0.67724
O     -0.96856     2.86537    -0.82619
H     -0.50667     2.42344    -0.08668
H     -1.07942    -0.60679    -0.70960
O     -0.39117    -0.91189    -1.34294
H     -0.37661    -0.25442    -2.05751
H      1.41013    -1.48672     1.60169
O      1.40283    -0.83149     2.32214
H      2.28557    -0.78575     2.68758
H      1.43712    -0.14891    -1.15658
O      1.96388     0.66017    -1.22253
H      1.61705     1.07429    -2.02169
H     -0.54423     1.98627    -2.25816
O     -0.20925     1.37583    -2.95003
H     -0.73060     1.52931    -3.73789
H     -1.65603     0.71725     1.03491
O     -2.05937    -0.07890     0.67435
H     -1.90363    -0.77676     1.34282
