 27
-688.4331899688312
H      0.52288    -2.88474    -1.79478
O      0.59528    -2.36423    -0.99525
H      0.75552    -1.43009    -1.25046
H     -0.08897     1.96458    -3.02631
O      0.80368     1.68981    -3.33178
H      0.70259     1.39279    -4.23651
H     -0.33276     0.58808     2.84654
O     -0.76532     1.45032     2.70840
H     -1.33148     1.59807     3.46602
H     -1.65623     1.78309    -1.43388
O     -1.62074     2.29188    -2.26985
H     -1.87465     3.18952    -2.05060
H      1.22820     0.76386    -1.89178
O      1.14715     0.28204    -1.04579
H      0.36183     0.65253    -0.60691
H     -0.81614    -2.15100     0.24180
O     -1.44456    -1.74742     0.85761
H     -0.95174    -1.64356     1.68231
H      1.89427    -2.03019     0.43613
O      2.28641    -1.31465     0.95438
H      2.21885    -0.56027     0.34774
H      0.73555    -1.47736     3.67068
O      0.45232    -1.05515     2.86037
H      1.20874    -1.11959     2.22399
H     -1.65233    -0.06821     0.25610
O     -1.47228     0.88098     0.08296
H     -1.32640     1.27670     0.96096
