 15
-382.4418944759791
H     -1.63183    -1.16938     0.03132
O     -1.94376    -0.24527    -0.07153
H     -2.43699    -0.23851    -0.89302
H      0.14992    -2.40949    -0.13674
O     -0.76142    -2.69941     0.08308
H     -0.68657    -3.18332     0.90663
H      0.17522     4.08971    -0.54336
O      0.53409     3.65684     0.23350
H     -0.00724     3.96631     0.96219
H     -0.34181     0.60219     0.02946
O      0.60608     0.82065     0.03173
H      0.66475     1.77873     0.10370
H      2.54990    -1.70218    -0.02364
O      1.67852    -1.60260    -0.40617
H      1.41978    -0.66397    -0.27380
