 21
-535.43206054982
H     -1.21469    -0.28077    -0.64436
O     -1.10542     0.58685    -0.20548
H     -1.94446     0.76193     0.24293
H      3.09264     2.65131     0.77780
O      2.84318     1.85324     0.31011
H      2.12751     2.10750    -0.30975
H      1.21955    -1.85053     0.48602
O      0.97646    -2.71672     0.08110
H      1.22373    -3.39199     0.71267
H     -3.77363    -0.44579     0.84112
O     -3.62649     0.48041     1.05054
H     -3.68016     0.52675     2.00714
H      1.99438     0.40354     0.96241
O      1.30937    -0.25972     1.16055
H      0.48053     0.16386     0.89563
H      0.00392     1.76212    -0.93347
O      0.70208     2.33360    -1.31007
H      0.75376     2.11273    -2.24142
H     -1.16776    -2.18206    -2.11593
O     -1.29087    -1.96159    -1.19126
H     -0.50793    -2.33463    -0.72860
