 18
-458.94088497409524
H      1.28168     0.73316    -1.09086
O      1.45959    -0.21237    -1.07571
H      1.71643    -0.42290    -0.15604
H     -0.77299    -0.03908     1.95531
O     -0.25036    -0.38657     2.71025
H     -0.79640    -1.05425     3.12667
H     -0.03526    -0.88258    -1.63010
O     -0.98008    -0.92624    -1.91027
H     -1.15273    -1.82881    -2.17584
H     -1.67277    -0.21874    -0.17333
O     -1.64377     0.45808     0.51647
H     -1.29240     1.21724     0.03312
H      2.84707    -0.39261     1.93569
O      2.13376    -0.83680     1.47653
H      1.32915    -0.69916     2.01845
H     -0.96449     2.59696    -2.18581
O     -0.54741     1.88662    -1.69828
H     -0.84531     1.06625    -2.11721
