 27
-688.4338731383183
H      0.88735    -1.04434     1.30295
O      1.27330    -0.95837     0.41911
H      0.78365    -1.56525    -0.17447
H     -0.73172    -1.86053    -1.79941
O      0.13432    -2.27190    -1.65450
H      0.72144    -1.89141    -2.31493
H     -0.14219    -1.23936     3.70309
O     -0.09789    -0.74199     2.88773
H      0.07918     0.19800     3.10664
H     -2.16408    -0.53430    -0.64214
O     -2.15524    -0.75447    -1.60479
H     -3.06142    -0.83728    -1.90161
H      2.16934    -0.50022    -1.09784
O      2.25060    -0.30692    -2.04817
H      3.08815     0.13774    -2.17498
H      0.32815     2.04421     1.97815
O      0.39995     1.90845     2.94441
H      1.18029     2.38423     3.22921
H      0.63647     0.61404    -2.42700
O     -0.18697     1.11947    -2.36121
H     -0.89674     0.46763    -2.27255
H      0.81944     0.94040     0.27561
O      0.25255     1.73021     0.23780
H      0.00896     1.79007    -0.70960
H     -1.45569     0.84524     0.81415
O     -1.97137     0.03354     0.94141
H     -1.49509    -0.44443     1.63606
