 27
-688.43133262246
H      0.55614     1.04413     0.84425
O      0.78591     1.09910    -0.09655
H     -0.01659     0.76253    -0.52378
H      2.41737    -2.28067     0.32021
O      2.54699    -2.68913     1.20525
H      3.13079    -3.43822     1.08476
H     -1.45362    -1.15998    -0.80346
O     -0.95558    -1.99354    -0.92789
H     -1.50633    -2.59144    -1.43234
H      0.89020     2.66076    -0.99765
O      0.61124     3.41457    -1.55246
H      1.14082     3.37833    -2.35025
H      0.86972    -1.65644    -1.18287
O      1.79427    -1.39790    -1.05990
H      1.74066    -0.48176    -0.75400
H     -0.45457    -0.56810     2.18127
O     -0.71462     0.38756     2.22535
H     -0.75059     0.63589     3.14617
H      0.84593    -2.41774     1.74817
O     -0.09442    -2.16807     1.76939
H     -0.40905    -2.30517     0.86432
H     -1.12541     3.19235    -1.45113
O     -2.06016     2.94871    -1.28745
H     -2.46097     3.70554    -0.85818
H     -1.84511     0.50424     0.67496
O     -1.95672     0.41177    -0.28513
H     -2.12646     1.30348    -0.64376
