 21
-535.4374804100826
H      0.42843    -1.68163    -0.37698
O      0.80722    -0.94435     0.13279
H      0.08345    -0.61292     0.68446
H      0.10675     2.47314    -0.10775
O     -0.75062     2.75124     0.29660
H     -1.13311     3.39693    -0.29747
H     -2.37146    -0.63196     0.34331
O     -2.78865    -1.19781    -0.32969
H     -3.19347    -0.60088    -0.96033
H     -1.33616     0.50131     2.37207
O     -1.40673     0.41135     1.42119
H     -1.25194     1.30719     1.04093
H      4.03721    -0.34376     0.28343
O      3.30100     0.17640     0.60559
H      2.51241    -0.39192     0.53882
H      1.09943     0.76266    -0.92225
O      1.44213     1.66440    -0.84316
H      2.27103     1.51497    -0.36407
H     -0.92090    -3.71841    -0.93816
O     -0.74222    -2.80038    -1.14483
H     -1.54915    -2.29688    -0.90740
