 27
-688.4418232613845
H      2.65479    -1.72063    -1.07512
O      1.93406    -1.13182    -0.85127
H      1.09789    -1.66574    -0.92881
H     -0.82638    -2.54069    -0.30638
O     -0.41633    -2.33206    -1.16267
H     -0.93547    -1.58795    -1.50354
H      1.64737     1.42809     1.00739
O      1.89833     0.57953     1.40271
H      2.03961    -0.01863     0.65032
H      1.12828     3.60445    -0.21793
O      0.86314     2.69325    -0.10315
H      0.91594     2.24770    -0.98701
H     -1.26235     0.85109     1.41324
O     -1.51292     1.39793     0.65535
H     -0.76401     1.99739     0.51068
H     -1.14656    -1.62223     1.79983
O     -1.56063    -2.37237     1.34235
H     -2.48820    -2.36040     1.57444
H     -0.23686    -0.17864     3.57601
O     -0.30993    -0.23608     2.62395
H      0.57993     0.00589     2.25450
H      1.41000     0.35157    -1.87204
O      0.89168     1.09360    -2.22139
H     -0.01122     0.74943    -2.30104
H     -1.70786     0.54206    -0.81167
O     -1.70291     0.11264    -1.70098
H     -2.55074     0.29490    -2.10285
