  9
-229.45877166272828
H      0.20176    -1.24010    -0.17397
O      1.16508    -1.12097    -0.24617
H      1.55514    -1.75464     0.35623
H     -1.17836     0.36315     0.10283
O     -1.56323    -0.52531     0.00926
H     -2.13845    -0.47294    -0.75508
H      0.69268     1.96577     0.89926
O      0.33420     1.53348     0.12393
H      0.92131     0.77920    -0.05469
