  9
-229.45028231718317
H      1.33112    -3.01747    -0.69055
O      0.66867    -2.64378    -0.10914
H      0.67621    -1.69119    -0.27348
H     -0.52493     0.88204     0.15800
O     -0.23464    -0.02503    -0.00823
H     -0.86579    -0.59693     0.43653
H     -0.63352     3.16038    -0.51662
O     -0.76132     2.74612     0.33958
H     -0.05679     3.09389     0.89063
