 27
-688.4347386578318
H      1.25219     0.63821     1.12080
O      2.02616     0.55903     0.54265
H      2.18083    -0.39684     0.51653
H     -0.31644    -1.80290    -1.16065
O     -0.39359    -2.57766    -0.57173
H     -1.21976    -2.41956    -0.09596
H     -3.27739    -1.59132     1.28418
O     -2.43923    -1.33629     0.90122
H     -2.50374    -0.40745     0.61624
H      1.98960     1.36711    -0.97120
O      1.71247     1.77945    -1.82447
H      2.47084     1.78308    -2.40801
H     -0.95278     0.32491    -1.06452
O     -0.44166    -0.12123    -1.75671
H      0.30030     0.45965    -1.96625
H      0.64143    -1.04233     2.11336
O     -0.09100    -0.41383     2.18115
H     -0.85422    -0.90167     1.83557
H      0.95892    -2.42360     0.41362
O      1.70494    -2.16698     1.01695
H      2.19033    -2.96216     1.23112
H     -0.93962     3.58816    -1.61932
O     -0.44624     3.17562    -0.90831
H      0.34402     2.77563    -1.31347
H     -1.10157     1.02460     1.31936
O     -1.62764     1.19654     0.52271
H     -1.26039     1.99931     0.10954
