  9
-229.4405380197924
H      2.24779    -1.09949    -0.10859
O      3.11886    -0.70528    -0.01392
H      3.41559    -0.56302    -0.91631
H     -4.61299    -0.65759    -0.10652
O     -4.78609    -1.59634    -0.02446
H     -4.60289    -1.80454     0.89250
H      2.21773     2.54660     0.59068
O      1.85798     1.81748     0.08380
H      2.42471     1.05631     0.27142
