 18
-458.9366926507006
H      0.09331     1.15942     1.01000
O     -0.71134     0.99740     1.51147
H     -1.40168     1.25347     0.88612
H      0.77569    -1.64594     1.23674
O     -0.18681    -1.76302     1.22754
H     -0.52409    -0.92205     1.57406
H     -1.68394    -0.77268    -1.29902
O     -0.83053    -1.21630    -1.32248
H     -0.68022    -1.56893    -0.41151
H      0.37100    -0.04430    -1.35436
O      0.94783     0.74912    -1.19939
H      1.48448     0.83720    -1.98772
H      2.81356    -0.13851     1.52438
O      2.39134    -0.70625     0.87812
H      2.09858    -0.12583     0.15974
H     -0.87544     1.65622    -1.25338
O     -1.81857     1.68438    -1.03926
H     -2.12861     2.54510    -1.32163
