 27
-688.4397407153027
H     -0.40839    -2.08582    -0.21155
O     -0.09826    -2.48502     0.64363
H     -0.23060    -3.42953     0.57121
H      0.06863    -0.99076    -2.04590
O     -0.76043    -1.28429    -1.63862
H     -1.29854    -0.48615    -1.52044
H      0.46385     0.58616     2.00838
O      0.98050     1.14239     1.40800
H      1.64443     0.52414     1.03773
H     -2.16216     1.33381    -0.08533
O     -2.14699     1.11678    -1.04729
H     -2.95496     1.45961    -1.42751
H      0.67005     1.87030    -0.27643
O      0.50745     2.01133    -1.22564
H     -0.43989     1.86032    -1.35567
H     -0.62305    -1.36643     1.91720
O     -0.86365    -0.67877     2.56831
H     -0.81402    -1.07499     3.43792
H      2.19726     0.04932    -3.12700
O      1.66104    -0.09943    -2.34971
H      1.34440     0.78226    -2.02707
H      1.67242    -1.65079     0.46571
O      2.32123    -0.96880     0.25382
H      2.25754    -0.83745    -0.70313
H     -0.93185     2.04517     1.54852
O     -1.84230     1.72318     1.55054
H     -1.78161     0.88898     2.03850
