 27
-688.4296574791181
H      0.42461     0.65220     0.55807
O      0.97222     0.80183    -0.23441
H      0.60554     0.20217    -0.90517
H      1.94522    -2.21331     0.18695
O      1.13543    -2.74098     0.11283
H      0.58927    -2.28342    -0.54209
H     -0.78285    -1.34809    -2.46860
O     -0.54521    -1.19245    -1.55531
H     -1.33452    -0.77440    -1.12093
H      0.97628     2.49649    -0.72319
O      0.70225     3.38242    -1.03527
H      1.23849     3.58099    -1.80317
H      3.99032    -0.71425    -0.17650
O      3.16865    -0.87649     0.28664
H      2.59818    -0.10589     0.12792
H     -0.64869    -0.84706     2.10921
O     -0.75226     0.12231     1.95576
H     -0.68711     0.54947     2.80968
H     -1.16198    -3.15169     2.16261
O     -0.45144    -2.51908     2.26545
H      0.18776    -2.71540     1.53696
H     -2.44026     3.47616    -1.09997
O     -1.91576     2.70288    -1.31056
H     -0.97917     2.97815    -1.22490
H     -2.04244     0.26807     0.60368
O     -2.42246     0.20624    -0.28487
H     -2.34027     1.10264    -0.66015
