 27
-688.4281378220645
H      2.36375    -0.47129    -3.17988
O      1.46284    -0.65645    -2.91382
H      1.50376    -1.38825    -2.26432
H      0.41821    -2.41337    -0.54182
O      1.32026    -2.52659    -0.94131
H      1.43405    -3.46527    -1.09204
H      1.25813     1.97803     1.07945
O      1.17562     1.02100     1.12070
H      0.81813     0.77430     0.24670
H     -0.22365     2.55426    -0.75797
O     -0.23681     3.30935    -0.14181
H     -0.52652     4.07405    -0.63882
H      1.42297    -0.65305     1.82359
O      1.36126    -1.61699     1.86148
H      1.77621    -1.90208     1.04041
H     -1.15396     2.50323     1.28589
O     -1.46200     1.77454     1.84780
H     -0.64726     1.27482     2.00371
H     -1.52088    -1.38706     0.36478
O     -0.89972    -2.12938     0.43590
H     -0.33617    -1.96555     1.21522
H      0.38773     0.36101    -1.96535
O     -0.12796     0.82664    -1.27783
H     -0.96690     0.36238    -1.15746
H     -2.28433     0.73487     0.77502
O     -2.53759     0.08830     0.07047
H     -3.48140    -0.05375     0.13811
