 27
-688.4328815319564
H      0.96916     1.27576     2.08144
O      0.93348     0.41366     2.52552
H     -0.00713     0.32515     2.72659
H     -0.63141    -2.93274    -1.66554
O     -1.59465    -2.74697    -1.71008
H     -2.03587    -3.56926    -1.49318
H     -1.74875     0.25087     1.25320
O     -1.81109     0.72975     2.10438
H     -2.61471     0.45639     2.54498
H     -0.75705     2.25608     1.59173
O     -0.01234     2.63193     1.10397
H     -0.30753     2.63790     0.18464
H      1.89639     2.28532    -0.04739
O      2.05696     1.68422    -0.78227
H      1.24919     1.76389    -1.30934
H      1.43801    -0.62361     1.15533
O      1.54210    -0.84415     0.20542
H      1.90797    -0.03418    -0.20798
H      1.72300    -3.03600    -2.13114
O      1.09480    -3.03951    -1.40703
H      1.36515    -2.31856    -0.80309
H     -0.96806     1.02675    -1.20749
O     -0.64538     1.89744    -1.52555
H     -1.13311     2.13368    -2.31465
H     -0.20514    -0.67821    -0.08765
O     -1.14797    -0.46761    -0.26623
H     -1.51493    -1.22544    -0.76134
