  9
-229.45877607264427
H      1.49920    -1.58085     0.69677
O      1.16488    -1.10842    -0.06649
H      0.19889    -1.21824    -0.03548
H     -1.17984     0.41639     0.13187
O     -1.56036    -0.47759     0.09102
H     -2.22296    -0.44977    -0.59936
H      0.64231     2.14760    -0.68023
O      0.35820     1.57144     0.02975
H      0.93017     0.78554    -0.02027
