 18
-458.93686019075926
H      3.43538     1.50444     0.45122
O      2.59236     1.86478     0.72876
H      1.91866     1.36314     0.24066
H      0.73701     1.62099     3.46167
O      1.14890     0.95045     2.91631
H      1.81061     1.41130     2.37131
H     -2.42932    -1.56123    -3.02818
O     -2.25447    -1.60011    -2.08732
H     -2.22318    -0.66924    -1.77456
H      0.40690     0.17384     1.27792
O      0.35862     0.15605     0.30964
H      0.34221    -0.77973     0.03281
H     -0.82444    -2.20770    -1.25416
O      0.00715    -2.34257    -0.75338
H      0.61244    -2.79214    -1.34345
H     -2.51626     1.27302    -0.44601
O     -1.88477     0.89289    -1.05832
H     -1.05938     0.75946    -0.54499
