 15
-382.4486864816051
H     -1.80056    -0.64151     0.11392
O     -2.28276     0.20682     0.22230
H     -2.72564     0.14552     1.06932
H      0.06413    -1.90453     0.08083
O     -0.88689    -2.09632    -0.06372
H     -0.93036    -2.61205    -0.86925
H      1.04331     1.58873    -0.05611
O      1.91414     1.22511     0.21290
H      2.15984     1.70743     1.00301
H     -0.79432     2.45811    -1.32072
O     -0.53588     2.16650    -0.44607
H     -1.19508     1.48791    -0.18523
H      2.44179    -1.77463    -0.29654
O      1.72840    -1.46922     0.26347
H      1.80380    -0.48984     0.27232
