 27
-688.431581047728
H     -1.25913    -1.93607    -1.29367
O     -0.44260    -2.33726    -0.94685
H      0.27767    -1.80562    -1.31863
H      0.76772     0.23316    -2.12204
O      1.42964    -0.47812    -1.98836
H      1.91889    -0.56355    -2.80747
H      0.84001    -0.77057     2.09699
O      1.61436    -0.24820     2.37700
H      2.17908    -0.83168     2.88447
H     -2.58217    -0.23852    -2.36573
O     -2.67209    -0.83755    -1.62122
H     -2.67467    -0.25673    -0.84503
H      2.19472     0.63867    -0.59020
O      2.33003     1.26269     0.13377
H      2.33834     0.71454     0.93174
H      0.98018     2.20692     1.02081
O      0.26928     2.23368     1.68401
H      0.59769     1.62647     2.35601
H     -0.91864     1.17351    -1.04156
O     -0.41416     1.50573    -1.80840
H      0.06568     2.27592    -1.49079
H     -0.48628    -2.07639     0.69099
O     -0.57142    -1.73309     1.62284
H     -1.09283    -2.37288     2.10670
H     -1.14773     1.39044     0.97725
O     -1.67835     0.69562     0.53370
H     -1.46119    -0.11846     1.01366
