 27
-688.4413142468302
H      1.16509    -1.09492    -1.59673
O      1.96274    -0.54729    -1.53630
H      2.16374    -0.51116    -0.58888
H     -1.21758    -1.15453    -1.22897
O     -0.55258    -1.85856    -1.43904
H     -0.93784    -2.40916    -2.11919
H      0.85510     0.91849     1.70510
O      0.03393     1.40609     1.86856
H     -0.17992     1.84289     1.02870
H      0.05398     2.24850    -1.29004
O     -0.69538     2.38244    -0.66411
H     -0.99454     3.28475    -0.78125
H     -2.42247    -0.36695     2.90127
O     -1.86285    -0.43254     2.12933
H     -1.18768     0.29274     2.18085
H      2.79405    -0.78129     1.82291
O      2.04182    -0.54044     1.28305
H      1.37716    -1.26846     1.37464
H     -0.72277    -1.87832     1.64394
O      0.04825    -2.32241     1.26063
H     -0.13599    -2.37574     0.31077
H      1.39027     1.98301    -3.27854
O      1.35157     1.93703    -2.32402
H      1.64818     1.02298    -2.08403
H     -1.82792     0.89077    -0.64923
O     -2.25228     0.01966    -0.60230
H     -2.32698    -0.18211     0.34277
