 27
-688.4335352285048
H      3.64813    -2.28853    -1.17000
O      3.09645    -2.06043    -0.42134
H      2.30944    -2.64693    -0.46550
H      0.07999    -2.79969    -0.34995
O      0.77688    -3.46413    -0.52595
H      0.57318    -4.22405     0.02065
H     -1.23286    -0.17591     3.23221
O     -1.80597    -0.27299     2.47124
H     -1.87894     0.61429     2.07499
H     -0.89196     2.44581     0.99596
O     -1.82805     2.17647     1.17254
H     -2.30202     2.96150     1.44457
H      1.04414     0.89128    -1.49078
O      0.58729     1.54035    -2.06562
H      0.90942     1.42161    -2.95900
H      0.70077    -0.48518     0.20102
O      1.48512     0.06304     0.02483
H      2.22472    -0.56563    -0.08334
H     -1.44339    -0.82395    -0.51991
O     -0.99444    -1.44921     0.08914
H     -1.35581    -1.25620     0.97403
H      1.15936     1.85872     0.61320
O      0.67787     2.69097     0.47743
H      0.61175     2.73666    -0.48568
H     -1.22015     1.09974    -1.67632
O     -2.00214     0.70990    -1.25964
H     -2.18126     1.26498    -0.48876
