 27
-688.4351954883803
H      2.07040    -2.40767    -0.85258
O      1.55365    -1.63216    -0.63514
H      0.61222    -1.83026    -0.86844
H     -1.57748    -1.58252    -0.57472
O     -1.02429    -1.83832    -1.32904
H     -1.12702    -1.13181    -1.98222
H      1.95195     0.64890     1.61420
O      1.74899    -0.26899     1.85630
H      1.81134    -0.77496     1.03372
H      1.46243     3.01364     0.90488
O      2.04463     2.26607     0.76727
H      1.89351     1.97387    -0.15082
H     -1.77432     0.75079     0.16935
O     -1.36162     1.47349    -0.33073
H     -0.41032     1.38095    -0.19156
H     -3.23933    -0.98090     1.23313
O     -2.34243    -0.81485     0.94250
H     -1.76480    -0.84949     1.73986
H     -0.62859    -0.39384     3.87540
O     -0.63016    -0.77359     2.99776
H      0.26145    -0.58551     2.61423
H      1.62199     0.07818    -1.28116
O      1.35648     0.98372    -1.50451
H      0.68697     0.89575    -2.19520
H     -1.61440     0.87057    -3.56360
O     -1.11108     0.55562    -2.81424
H     -1.41938     1.03966    -2.01521
