  9
-229.4586050414021
H      1.60014    -1.35319    -0.75688
O      1.23494    -1.00254     0.05632
H      1.33144    -0.03650    -0.01202
H     -2.19155    -0.81423     0.35429
O     -1.44108    -0.22412     0.28494
H     -0.64363    -0.78150     0.28551
H      0.65006     2.28699     0.71565
O      0.57762     1.72210    -0.05396
H     -0.31925     1.35529    -0.00924
