 21
-535.4321221416468
H      2.80557    -0.52117     1.82474
O      2.69055    -0.48567     0.87513
H      2.57385     0.46277     0.65139
H     -2.48615     0.41261    -0.12880
O     -1.78949     0.60176     0.51763
H     -1.44147    -0.28079     0.69175
H      1.74632    -1.52409    -0.11824
O      1.20134    -2.05450    -0.73971
H      1.34999    -1.66272    -1.60166
H     -0.67160     3.45864     0.92843
O     -0.26687     2.83286     0.32828
H     -0.82383     2.02182     0.36537
H      1.39822     2.40456     0.33007
O      2.34070     2.13369     0.27217
H      2.68099     2.55095    -0.51968
H     -0.40029    -2.17042    -0.20888
O     -1.32973    -2.18265     0.12323
H     -1.40141    -2.91442     0.73592
H     -3.24859    -0.88967    -2.21947
O     -3.34457    -0.85947    -1.26737
H     -2.71737    -1.51033    -0.91096
