 18
-458.9444995617447
H      1.85815    -0.45310    -0.29602
O      1.78819    -0.12579    -1.20669
H      2.51868    -0.50543    -1.69500
H     -1.03461    -1.34446    -0.85784
O     -0.92338    -0.75823    -1.62659
H      0.02663    -0.57461    -1.66933
H     -1.68511    -0.75342     1.13501
O     -1.17698    -1.55855     0.99465
H     -0.28688    -1.33227     1.29722
H     -1.70718     0.51498    -0.80622
O     -2.00829     1.16439    -0.12385
H     -2.67732     1.71281    -0.53378
H      1.09066     0.48323     1.41199
O      1.40329    -0.44468     1.54013
H      1.80810    -0.49072     2.40496
H      0.94729     1.77415    -0.24942
O      0.52396     1.87978     0.60954
H     -0.42555     1.75909     0.42949
