 27
-688.4284204609307
H      1.56753     0.52743    -2.22527
O      1.10638     0.05040    -1.53760
H      0.51757     0.68457    -1.07813
H      2.95959    -0.73739     0.95208
O      2.30029    -1.35706     0.59024
H      2.06011    -0.98872    -0.27241
H     -0.81493    -1.86088    -0.09894
O     -0.95793    -1.85501    -1.05464
H     -0.19428    -1.36600    -1.39395
H     -1.56953     1.48875    -0.42032
O     -0.73931     1.25482     0.04177
H     -0.91612     0.44649     0.54451
H      2.86333     1.21452     1.72380
O      3.72791     0.79568     1.53539
H      4.28446     0.97574     2.29288
H      0.74225     0.74180     2.35043
O      1.14838     1.55364     2.02886
H      0.59760     1.76447     1.25952
H     -0.32670    -1.70297     2.33742
O     -0.13010    -1.12813     1.59836
H      0.81327    -1.29907     1.33347
H     -2.47467    -1.28057    -1.68298
O     -3.29190    -0.89007    -2.06324
H     -3.36203    -1.22974    -2.95571
H     -3.85962     2.01146    -0.89187
O     -3.04549     1.70144    -1.28993
H     -3.22615     0.79706    -1.62713
