 21
-535.4330216542629
H     -0.30476     1.26416     0.03083
O     -1.11986     1.76241     0.18501
H     -0.96969     2.12231     1.07171
H      0.82664     1.62466     2.08235
O      0.24940     2.25025     2.55365
H      0.79139     3.01433     2.75195
H      0.21432    -2.07507    -0.62037
O      1.16685    -2.10204    -0.37559
H      1.32913    -2.94721     0.04424
H     -3.42939     0.53892    -1.54365
O     -3.01713     0.09996    -0.80006
H     -2.42582     0.76706    -0.38364
H      2.96605    -0.03855    -2.25055
O      3.09761    -0.29995    -1.33852
H      2.52957    -1.07527    -1.19933
H      2.13496     0.55519     0.07649
O      1.43089     0.48370     0.74015
H      1.23219    -0.46245     0.72645
H     -2.02231    -1.30617    -0.92506
O     -1.47988    -2.12666    -0.94285
H     -2.02874    -2.80475    -0.54590
