  9
-229.45877489666668
H      0.14642    -1.23621     0.00664
O      1.09853    -1.14622     0.18730
H      1.54042    -1.72223    -0.43676
H     -1.17254     0.42280    -0.25127
O     -1.57657    -0.46107    -0.29361
H     -2.23709    -0.47148     0.40007
H      0.79669     2.05654    -0.66159
O      0.34636     1.55190     0.01600
H      0.89876     0.76732     0.17402
