 18
-458.9409380400845
H      1.96928    -1.26324    -0.15191
O      2.25451    -0.92125    -1.02761
H      2.39193    -1.69349    -1.57644
H      1.09488     0.28216    -1.38713
O      0.42929     0.97541    -1.59794
H      0.61592     1.27716    -2.48700
H     -1.67894    -0.74578     0.69912
O     -1.40864    -1.51744     1.25055
H     -2.04886    -2.20415     1.06445
H      0.02811     2.22352    -0.23389
O     -0.50981     2.71034     0.41132
H      0.02865     2.79432     1.19848
H      1.55200    -1.54091     2.20377
O      1.28849    -1.83014     1.32966
H      0.31240    -1.74740     1.29930
H     -1.86861     1.38993     0.09095
O     -2.06590     0.54608    -0.34289
H     -1.38649     0.51781    -1.03036
