 18
-458.9418018691303
H      2.99586     0.13890    -0.91406
O      2.03896     0.14740    -0.93382
H      1.74552    -0.53940    -0.31273
H     -0.01093     1.32053     1.35756
O     -0.50700     0.57003     1.72855
H      0.07074    -0.19477     1.61060
H     -1.50776    -1.03398    -0.97818
O     -0.92193    -1.76980    -1.25259
H     -0.46957    -1.45884    -2.03936
H      1.22680     1.67171    -0.38854
O      0.75249     2.38139     0.08035
H      0.15992     2.77242    -0.56345
H      0.17867    -1.94061     0.05449
O      0.87967    -1.74369     0.72171
H      1.07063    -2.55383     1.19269
H     -3.22739     0.47451     0.02505
O     -2.32153     0.35718    -0.25957
H     -1.75613     0.48661     0.53773
