 27
-688.4370582368986
H      0.16448    -2.27396     1.37242
O      0.57706    -2.80345     0.67646
H     -0.02489    -2.69547    -0.07303
H     -1.05454    -0.95620     0.05033
O     -1.19569    -1.23653    -0.87642
H     -2.04096    -0.83483    -1.13654
H      3.53514    -1.88325    -0.17709
O      2.71845    -1.39547    -0.07662
H      2.02506    -2.02718     0.23302
H      0.81919     1.57279    -1.06993
O      0.64930     2.38439    -0.51718
H      1.02607     3.12262    -0.99380
H     -2.02513     2.71874     1.13457
O     -1.80314     1.97098     0.58179
H     -0.93199     2.15728     0.18008
H     -1.20429     0.35450     1.60503
O     -0.60330    -0.39762     1.68448
H      0.29303    -0.00536     1.76480
H      1.63821     1.47689     0.91824
O      1.83775     0.73923     1.50839
H      2.36334     0.11167     0.99037
H      1.78508    -0.40241    -1.32027
O      1.08421     0.10496    -1.75823
H      0.26460    -0.40624    -1.62642
H     -3.58767     0.97623    -1.93543
O     -3.36965     0.46275    -1.15793
H     -2.91608     1.06483    -0.54434
