  9
-229.45860342443288
H      1.48292    -1.97260    -0.34568
O      1.12996    -1.10663    -0.14147
H      0.16875    -1.21231    -0.03511
H     -1.19532     0.42099     0.12987
O     -1.58586    -0.46972     0.09454
H     -2.18412    -0.45574    -0.65344
H      0.91573     0.83506    -0.06778
O      0.32224     1.58686     0.08640
H      0.63617     1.98561     0.89823
