 27
-688.431705260362
H      1.79108    -2.02435     2.22991
O      1.51203    -1.18571     1.86267
H      0.59944    -1.31027     1.53784
H     -0.66769    -1.74628    -2.23101
O      0.02730    -1.92469    -1.57620
H     -0.40786    -1.77254    -0.72714
H      1.46065     2.51000    -1.17944
O      0.92769     1.80376    -0.81596
H      1.47593     0.97368    -0.85708
H     -1.11961    -0.12941     1.04893
O     -1.06927    -1.10888     0.93733
H     -1.88513    -1.47684     1.27694
H     -0.79924     1.37454    -1.51037
O     -1.75553     1.23006    -1.44885
H     -1.94967     1.42273    -0.52525
H      1.28412     0.27488     2.99027
O      0.90696     1.04934     3.44171
H      1.64592     1.58917     3.72233
H     -2.22995    -0.70433    -3.85695
O     -2.17516    -1.00537    -2.95033
H     -2.13939    -0.19515    -2.40242
H      1.55715    -1.07239    -1.25950
O      2.22812    -0.49308    -0.84130
H      2.25150    -0.76896     0.08562
H     -0.35602     1.50461     2.17609
O     -0.81086     1.52667     1.31504
H     -0.12815     1.78530     0.67204
