  9
-229.45876618708257
H      0.22952    -1.19300    -0.11996
O      1.19527    -1.07217    -0.11665
H      1.53271    -1.67692     0.54442
H     -1.17188     0.41206     0.00995
O     -1.54345    -0.48255    -0.07816
H     -2.07233    -0.45994    -0.87654
H      0.64675     2.07862     0.83970
O      0.32888     1.59084     0.07983
H      0.92914     0.83241    -0.02087
