  9
-229.4587829080141
H      1.50780    -1.67177    -0.25812
O      0.99722    -0.99248    -0.69912
H      0.07906    -1.11069    -0.39863
H     -1.14300     0.47430     0.34537
O     -1.55896    -0.40321     0.28867
H     -2.31534    -0.28877    -0.28787
H      0.90792     2.00972     0.73531
O      0.34899     1.63182     0.05618
H      0.85186     0.88864    -0.31863
