 27
-688.4342492306545
H      1.83355    -2.01783     0.45043
O      1.95310    -1.63033     1.33085
H      1.06561    -1.58550     1.70731
H      0.34304    -2.32076    -1.10982
O      1.29208    -2.54450    -1.18170
H      1.34607    -3.44646    -1.49901
H      0.37811     0.44814     1.85242
O     -0.42860    -0.08486     1.76473
H     -1.12401     0.55529     1.55641
H     -0.94740     2.17462     0.11894
O     -1.84739     1.99092     0.50803
H     -2.18382     2.82862     0.82500
H     -0.03211    -0.13873    -1.87572
O      0.84709     0.22248    -2.06235
H      1.43746    -0.51817    -1.89297
H      2.31263     0.06023     1.35249
O      2.17146     1.01480     1.54143
H      2.81194     1.27742     2.20214
H     -1.97679    -1.04579    -0.78431
O     -1.06478    -1.35389    -0.64710
H     -0.79056    -1.01874     0.22592
H      1.26114     2.10578     0.31341
O      0.62451     2.35022    -0.37308
H      0.77292     1.68589    -1.07309
H     -2.97305     0.81019    -0.33955
O     -3.41529     0.05783    -0.77277
H     -4.25710    -0.06446    -0.33405
