 27
-688.4336462481401
H      0.63161     1.17328     1.77813
O      0.45337     1.49449     0.87295
H      1.13657     1.11729     0.29914
H      1.51912    -1.34509    -0.52049
O      1.20429    -2.18368    -0.15083
H      0.51833    -2.47267    -0.77622
H      0.35843    -2.03047     1.26089
O     -0.25321    -1.91907     2.03870
H     -0.48769    -2.79943     2.32881
H     -0.27999     2.83490    -0.05875
O     -0.63935     3.34284    -0.81097
H     -1.32805     3.91019    -0.46352
H     -1.41259    -1.52326    -1.15228
O     -1.06736    -2.19719    -1.76606
H     -1.01674    -1.76685    -2.62221
H      0.45853    -0.59341     2.94631
O      0.89723     0.23448     3.22332
H      1.76862    -0.01181     3.53538
H      0.86519     0.52339    -1.85426
O      1.68685     0.29230    -1.36437
H      2.42848     0.61458    -1.87499
H     -0.70271     1.99375    -2.01542
O     -0.72685     1.07288    -2.33362
H     -1.40439     0.67037    -1.77687
H     -1.03312     0.48537     0.37403
O     -1.64776    -0.23208     0.13994
H     -1.56198    -0.85308     0.87606
