 21
-535.4373488475886
H     -1.28844     0.92487     1.16928
O     -1.05573     1.83767     0.94953
H     -1.87003     2.13533     0.51479
H      0.80792    -1.82871    -0.69251
O      0.08876    -1.26665    -1.03187
H      0.50238    -0.39960    -1.14329
H      2.71545    -1.55368     0.28107
O      2.35077    -2.42440     0.01990
H      3.05348    -2.88075    -0.44460
H     -4.42042     1.58197    -0.00619
O     -3.50756     1.56139    -0.29237
H     -3.20043     0.64687    -0.17500
H      3.02904     0.43236     1.53508
O      3.07314     0.13672     0.62424
H      2.39325     0.64594     0.14681
H      0.26316     1.67856    -0.10128
O      1.02208     1.43595    -0.69102
H      1.07205     2.09537    -1.38278
H     -1.32724    -1.00586    -0.13025
O     -2.10628    -0.74812     0.42513
H     -2.34116    -1.50891     0.95524
