 27
-688.4374524466397
H      1.81026    -1.68677    -2.60129
O      1.34055    -1.20029    -1.92523
H      1.32057    -0.24761    -2.19715
H      1.88822    -0.97495    -0.11073
O      1.99139    -0.55293     0.75532
H      1.15991    -0.72432     1.22913
H     -1.95239    -3.46980     3.29339
O     -2.06540    -2.52430     3.40633
H     -3.01432    -2.38609     3.41697
H     -1.36682     1.68759    -0.55019
O     -1.60285     1.47544    -1.48980
H     -2.33784     2.03504    -1.73681
H      0.10970     1.51672    -2.23334
O      1.06620     1.41743    -2.35570
H      1.47072     1.85129    -1.58981
H     -0.41902    -1.44331    -1.35407
O     -1.29329    -1.28655    -0.96770
H     -1.57860    -0.43397    -1.32735
H     -1.07668    -1.39918     2.27138
O     -0.62842    -0.85815     1.61006
H     -0.98120    -1.10576     0.72587
H      2.15703     1.10612     0.46909
O      2.04007     2.05786     0.22003
H      2.75771     2.55204     0.61304
H      0.25608     2.11206     0.80972
O     -0.66805     1.87080     0.97380
H     -0.65408     1.00322     1.41194
