 27
-688.4284769813542
H      1.14310    -2.31144     0.57840
O      0.92778    -3.22228     0.31167
H      1.10652    -3.26368    -0.63066
H      0.55426    -0.83767    -1.13818
O      0.11086    -0.68763    -1.98510
H      0.27574     0.24932    -2.16044
H      1.72868     2.33787     1.05130
O      2.31927     2.01704     0.32990
H      3.21046     2.30613     0.52441
H     -1.88054     0.60644     0.06833
O     -1.30568     1.36028     0.34406
H     -0.91965     1.67509    -0.48691
H      0.23979    -0.04800     0.88586
O      1.07671    -0.49087     0.68989
H      1.72672     0.20959     0.54476
H     -0.37268     2.18502     1.56087
O      0.35976     2.59368     2.07202
H      0.21808     2.36513     2.99119
H     -0.80108    -3.15875     0.58271
O     -1.76336    -3.00792     0.68397
H     -2.17769    -3.87045     0.71305
H      0.50492     2.85949    -2.24705
O      0.54672     2.04326    -1.75090
H      1.29046     2.10417    -1.12519
H     -2.35658    -1.58726    -0.25108
O     -2.44751    -0.77042    -0.77147
H     -1.71324    -0.79185    -1.40814
