 27
-688.4352825842211
H      2.80505    -1.26493    -1.03839
O      1.99878    -0.78186    -0.85903
H      1.24673    -1.43102    -0.89682
H     -0.48324    -2.78646    -0.30729
O     -0.22414    -2.21572    -1.05183
H     -0.89429    -1.52052    -1.12132
H      1.54321     1.87561     0.87716
O      1.37834     0.97710     1.20219
H      1.72536     0.37972     0.51579
H      1.28289     3.97231    -0.66060
O      0.83012     3.21273    -0.29604
H      0.70377     2.57435    -1.03728
H     -0.30157     1.46667     1.10256
O     -1.24555     1.69301     0.96232
H     -1.19753     2.58387     0.60368
H     -0.77694    -2.59192     1.74700
O     -0.87550    -3.46325     1.31352
H     -1.67845    -3.85294     1.65839
H     -1.22112    -0.19790     1.90142
O     -0.58723    -0.87387     2.16079
H      0.27058    -0.44806     2.03346
H      1.22619     0.59373    -1.84679
O      0.57942     1.26167    -2.12064
H     -0.27395     0.81318    -2.03333
H     -1.71165     0.67536    -0.34688
O     -1.80753     0.12383    -1.15286
H     -2.71697     0.18416    -1.44452
