 21
-535.4350897578697
H     -0.35202    -0.31312    -1.19685
O      0.15416    -0.01692    -0.41715
H      1.05405     0.23694    -0.69576
H     -0.36188     1.29947     0.66073
O     -0.40098     2.10256     1.21978
H     -0.99195     2.71129     0.77432
H     -1.99846    -2.38736     0.40685
O     -2.74484    -2.46018    -0.22490
H     -3.50961    -2.11649     0.23946
H     -2.06353    -1.62354    -1.61833
O     -1.52378    -1.13749    -2.27712
H     -1.26511    -1.78698    -2.93194
H      2.65921     1.55870     0.01396
O      2.66731     1.01536    -0.80224
H      2.91484     1.61176    -1.50977
H      1.30921     2.45478     1.44892
O      2.28844     2.50602     1.45281
H      2.55838     2.22682     2.32902
H     -0.19370    -1.23961     0.82697
O     -0.54741    -2.00256     1.32867
H      0.17769    -2.62222     1.42082
