 21
-535.4457615708432
H     -2.01059     0.68252    -1.11577
O     -1.60978     1.54810    -1.27741
H     -1.56176     1.92580    -0.39047
H      0.99789    -1.85014    -0.04367
O      0.38052    -1.69949    -0.78202
H      0.74225    -0.94347    -1.26741
H      1.90872    -0.63870     1.37495
O      2.04571    -1.61199     1.40352
H      2.97330    -1.75600     1.59139
H     -1.66716     0.42683     1.22190
O     -1.31668     1.28254     1.52970
H     -1.55030     1.36744     2.45412
H      0.53190     1.17003     1.19463
O      1.45099     0.98304     0.95757
H      1.47289     1.04834    -0.00775
H      0.00768     1.21560    -1.74185
O      0.93811     0.89336    -1.79336
H      1.33847     1.27627    -2.57191
H     -2.62650    -1.64258     0.08356
O     -2.01095    -0.91220     0.06003
H     -1.13222    -1.28240    -0.22561
