  9
-229.458594861846
H      0.15922    -1.20293    -0.01693
O      1.12625    -1.10022    -0.05556
H      1.46221    -1.56255     0.71317
H     -2.15530    -0.43269    -0.69180
O     -1.59813    -0.45177     0.08656
H     -1.22688     0.44234     0.14893
H      0.90988     0.79609    -0.06498
O      0.34909     1.58677     0.01791
H      0.93783     2.33890     0.08024
