 27
-688.4315607621145
H      2.68702    -2.21988     1.13975
O      1.97398    -1.65601     0.83943
H      1.15492    -2.20721     0.81413
H      2.16268    -0.56060    -0.65093
O      2.09558     0.12608    -1.32697
H      1.29889    -0.08839    -1.83027
H      1.28470     0.64290     3.01224
O      0.87021     0.53750     2.15542
H      1.35560    -0.17179     1.69493
H     -0.29631     2.46093    -0.86106
O     -1.11708     2.38870    -1.42175
H     -1.38990     3.27892    -1.63729
H     -0.72874     0.91795    -2.42037
O     -0.49080    -0.01107    -2.59594
H     -0.62975    -0.16962    -3.52908
H     -0.91502    -2.25937     1.38702
O     -0.38670    -2.93679     0.88825
H     -0.90721    -3.13812     0.11023
H     -2.07787    -0.49418     1.21132
O     -1.64097    -0.85114     2.00916
H     -0.90805    -0.24332     2.18228
H      1.03536     1.94226     0.84499
O      1.15865     2.34525    -0.02771
H      1.64960     1.66261    -0.53219
H     -2.30030     0.98780    -0.61743
O     -2.43331     0.04410    -0.46014
H     -1.81180    -0.35242    -1.08386
