 27
-688.4295534418497
H      1.46178    -1.21147    -1.77289
O      2.08647    -0.50365    -1.49178
H      2.89755    -0.61849    -1.98562
H     -0.71677    -1.84643    -2.15360
O      0.12405    -2.29293    -2.01191
H      0.01114    -2.70267    -1.14073
H     -0.37356     1.08058     0.52025
O     -1.00751     1.41184     1.17111
H     -1.18296     2.31419     0.85501
H     -0.64191     2.91683    -1.06010
O     -1.03426     3.62244    -0.51180
H     -1.73614     4.01356    -1.03326
H      0.20719    -2.04923     1.01939
O     -0.52903    -2.61513     0.67557
H     -0.67469    -3.32264     1.30368
H      0.05577     1.14195     2.62015
O      0.81257     0.87719     3.17687
H      1.26292     1.68629     3.42213
H      1.42147    -0.30586     1.94521
O      1.50472    -0.99556     1.26477
H      1.85095    -0.59884     0.45555
H     -0.68186     0.52888    -1.54711
O     -0.04383     1.26308    -1.54821
H      0.83166     0.85578    -1.60252
H     -1.61684    -1.38590    -0.12752
O     -1.88743    -0.62198    -0.66076
H     -2.05285     0.07472    -0.01081
