 18
-458.9437517134897
H      2.40358    -2.15728     1.16289
O      2.15165    -1.34378     0.72451
H      1.32294    -1.53339     0.25192
H     -0.40873    -1.21338    -1.33959
O     -0.28773    -1.75437    -0.52135
H     -0.85023    -2.52332    -0.60938
H     -1.48617     1.45457    -0.16472
O     -1.70690     1.86461    -1.03448
H     -2.58197     2.24151    -0.94227
H      0.13623     0.30825    -2.98897
O     -0.64130    -0.08203    -2.58742
H     -1.09121     0.66098    -2.12710
H      1.84350     0.10912     1.68804
O      1.47897     0.87112     2.18047
H      2.05703     1.61189     1.99409
H     -0.85385    -0.41286     0.80107
O     -1.04927     0.45492     1.17736
H     -0.23380     0.70263     1.64719
