 27
-688.4352393302951
H      1.58600    -1.79795    -0.73707
O      2.19069    -1.71105     0.02741
H      2.78210    -2.46366     0.02927
H     -0.54940    -1.96019    -1.13641
O      0.18083    -1.77100    -1.79078
H      0.03717    -2.33667    -2.54952
H      1.03380    -1.38013     1.46828
O      0.23594    -1.16936     1.97179
H      0.21286    -0.20749     2.02772
H     -0.50186     2.04426    -1.30588
O     -1.08886     2.55934    -0.68876
H     -1.23527     3.41619    -1.08651
H      1.57572     1.26349     0.87741
O      2.22115     1.06001     0.18954
H      2.39418     0.11193     0.26909
H     -0.47529     2.13826     0.92610
O     -0.14606     1.65975     1.71467
H     -0.17605     2.25921     2.46261
H     -2.20564    -1.35709     0.11367
O     -1.62339    -2.13841     0.12999
H     -1.05981    -1.97981     0.91053
H      0.46072     0.11688    -2.09511
O      0.64082     1.06891    -2.05507
H      1.35938     1.16727    -1.39767
H     -1.92839     0.54574     1.20153
O     -2.55783     0.43277     0.48139
H     -2.34573     1.16661    -0.10756
