 27
-688.4357356663409
H     -0.97952    -1.38581    -1.95492
O     -0.53603    -2.22195    -1.65333
H     -0.54115    -2.83430    -2.38878
H      1.05593     0.22545    -1.08912
O      1.55816    -0.53998    -0.75386
H      1.09398    -1.31991    -1.08800
H     -0.03442    -1.62074     1.75195
O      0.79035    -1.14392     1.91966
H      1.19864    -1.02028     1.04873
H     -0.99408     0.80718    -2.30043
O     -1.67171     0.13826    -2.12727
H     -1.95407     0.35721    -1.21994
H      2.53743     0.85857     0.08823
O      2.48576     1.79800     0.33094
H      3.36465     2.09242     0.56484
H      1.06474     1.82280     1.64295
O      0.30074     1.51141     2.14788
H      0.46960     0.55723     2.28827
H     -0.50445     1.88498    -0.54196
O      0.21491     1.90218    -1.19122
H      0.98949     2.24403    -0.72758
H     -1.26138    -2.36750    -0.00420
O     -1.58169    -2.12765     0.88417
H     -2.30604    -2.70678     1.11809
H     -1.13362     1.13451     1.22154
O     -1.74700     0.72637     0.57196
H     -1.80568    -0.20726     0.82461
