 24
-611.9387560164221
H     -1.38005     1.11263    -0.76623
O     -1.98243     1.20540    -0.01553
H     -1.39628     1.35359     0.74162
H     -2.85730    -0.25187     0.30165
O     -3.14892    -1.14085     0.60422
H     -3.99922    -1.01841     1.02681
H      2.44110     1.10147    -0.31454
O      1.76811     1.79167    -0.19361
H      1.17690     1.68267    -0.95113
H      3.80817    -0.87676    -1.27610
O      3.16133    -0.52494    -0.66563
H      2.35236    -1.05560    -0.76268
H     -0.25921     0.64993    -2.95447
O     -0.05450     0.67845    -2.02130
H      0.21112    -0.21957    -1.74416
H      0.20607    -1.63266     0.03011
O      0.64334    -1.70033    -0.86995
H      0.39519    -2.55904    -1.20962
H     -0.35455    -0.60568     1.77739
O     -0.55622    -1.49712     1.44866
H     -1.51483    -1.50790     1.27229
H      0.81345     1.43957     1.14111
O      0.13068     1.20788     1.82162
H      0.34296     1.69899     2.61363
