  9
-229.45878573771017
H      1.50028    -1.67594     0.53705
O      1.20128    -1.10889    -0.17479
H      0.23328    -1.20408    -0.19097
H     -2.13402    -0.31943    -0.74826
O     -1.51785    -0.45741    -0.02867
H     -1.12757     0.41371     0.15692
H      0.73917     2.21953    -0.34077
O      0.42520     1.54827     0.26549
H      0.98920     0.76910     0.11687
