  9
-229.45859607457288
H      1.26726    -0.47690    -0.31175
O      1.14342    -1.42792    -0.16540
H      1.35080    -1.83454    -1.00705
H     -0.68475    -1.14659     0.32066
O     -1.45320    -0.56241     0.44469
H     -1.68862    -0.64419     1.36962
H     -0.41510     0.90320    -0.19972
O      0.43543     1.28430    -0.47884
H      0.32021     2.23431    -0.49746
