 27
-688.4285371399583
H      1.95018    -0.67419    -3.26831
O      1.72265    -0.58930    -2.34193
H      1.55671    -1.50648    -1.99992
H      0.40650    -2.69010    -0.65744
O      1.28783    -2.86332    -1.04378
H      1.90854    -2.55655    -0.36036
H      0.31516     0.77712     1.75220
O      0.39509    -0.13805     2.06939
H      0.21812    -0.14132     3.00929
H      0.24620     1.98128    -0.11446
O      0.35341     2.34637     0.81008
H      1.07619     2.97329     0.79603
H      2.44467    -0.43803    -0.22958
O      2.57043    -0.99914     0.54271
H      1.89934    -0.71179     1.17377
H     -1.35989     2.45581     1.35801
O     -2.29307     2.24675     1.54203
H     -2.77374     3.07190     1.47479
H     -1.63335    -1.27269    -0.02012
O     -0.91032    -1.85873     0.23215
H     -0.44508    -1.37855     0.92947
H      0.37470     0.50536    -1.79260
O     -0.24834     1.17099    -1.45402
H     -1.07877     0.71598    -1.24497
H     -2.62464     0.93975     0.42414
O     -2.65299     0.27152    -0.29232
H     -3.53799     0.25830    -0.65461
