  9
-229.44050707688177
H      1.98142     0.76580     0.20048
O      1.88624    -0.14132    -0.12194
H      1.38329    -0.60797     0.54680
H     -5.12816    -1.66211    -0.37355
O     -4.50164    -2.01721     0.25827
H     -3.72197    -2.23005    -0.25623
H      3.59934     2.27587     0.15866
O      2.67888     2.55041     0.16534
H      2.46486     2.69127    -0.76048
