  9
-229.4587706704972
H      0.89238    -1.36087     1.48249
O      1.01961    -0.64917     0.85492
H      0.43686    -0.84814     0.10116
H     -0.56822    -0.17102    -2.11868
O     -0.84327    -0.30349    -1.21062
H     -0.85419     0.58439    -0.81326
H      0.40081     1.17286     0.82405
O     -0.20280     1.84445     0.46359
H     -0.68674     2.19181     1.21291
