  9
-229.4512052023541
H      0.43100    -2.76151    -0.79786
O      0.89563    -1.93631    -0.65378
H      0.25725    -1.34043    -0.23023
H     -0.18068    -0.41382     1.63951
O     -0.71429    -0.26719     0.85586
H     -0.67819     0.68802     0.69447
H     -1.24539     2.74464    -0.46387
O     -0.54668     2.50260     0.14768
H      0.26176     2.58690    -0.36339
