 27
-688.438834992055
H      1.21095    -3.57710    -1.07848
O      1.09692    -3.10658    -0.25195
H      0.24390    -2.62897    -0.33017
H     -1.17917    -1.06264     0.48383
O     -1.04228    -1.44528    -0.39921
H     -1.77291    -1.10653    -0.95063
H      3.66330    -1.29080     0.37033
O      2.74075    -1.04210     0.31989
H      2.21321    -1.86427     0.20130
H      0.75697     1.71550    -0.99882
O      0.58230     2.51003    -0.43809
H      0.85776     3.27442    -0.94153
H     -1.88009     1.23437     1.03440
O     -2.05468     1.79730     0.26646
H     -1.19834     2.19618     0.05638
H     -1.25099    -0.34257     2.96571
O     -1.02817    -0.06601     2.07854
H     -0.10347     0.28789     2.09834
H      1.22703     1.69232     1.12530
O      1.39642     0.98856     1.76863
H      1.96471     0.34492     1.31998
H      1.84872    -0.17280    -1.09934
O      1.06309     0.15030    -1.56502
H      0.33104    -0.40486    -1.24840
H     -3.80307     0.19762    -1.85221
O     -2.87456     0.09474    -1.64665
H     -2.63980     0.81037    -1.00893
