 27
-688.4421351894429
H      2.31911    -2.04166    -1.23181
O      1.69852    -1.36744    -0.95488
H      0.79040    -1.76182    -1.05213
H     -1.22018    -2.32239    -0.44130
O     -0.80721    -2.17908    -1.31204
H     -1.20675    -1.35510    -1.62894
H      1.88089     1.12063     1.01147
O      2.03832     0.22815     1.35534
H      2.03429    -0.34935     0.57398
H      1.58828     3.39838    -0.06533
O      1.20556     2.52490     0.00217
H      1.18826     2.12828    -0.90615
H     -1.06416     0.87162     1.54647
O     -1.27329     1.46118     0.80862
H     -0.46257     1.97095     0.65239
H     -1.24725    -1.47902     1.74575
O     -1.89059    -1.96367     1.20327
H     -2.68405    -1.42726     1.21402
H     -0.06288    -0.39335     3.62484
O     -0.17809    -0.35620     2.67625
H      0.71977    -0.20323     2.28021
H      1.39592     0.23110    -1.89973
O      0.98616     1.05854    -2.19761
H      0.03891     0.85996    -2.25913
H     -2.50104     0.85748    -2.03092
O     -1.71912     0.46070    -1.65149
H     -1.63903     0.79662    -0.72795
