  9
-229.4587730592017
H      1.85391    -1.17521     0.41691
O      1.11101    -1.08159    -0.17954
H      1.08264    -0.14017    -0.42198
H     -0.73039    -1.00056     0.32527
O     -1.56306    -0.50687     0.42068
H     -2.18093    -0.93707    -0.17159
H     -0.65680     1.08252    -0.13842
O      0.14184     1.53929    -0.45603
H      0.24969     2.30299     0.11140
