 27
-688.4314717920591
H      0.96847    -2.02281     1.56431
O      1.62819    -2.66936     1.24926
H      2.13995    -2.92935     2.01497
H     -1.04985    -1.48996     0.21610
O     -1.57744    -1.55380    -0.59326
H     -2.26756    -0.87045    -0.51527
H      3.23971    -1.55290    -1.27579
O      2.49698    -1.16277    -0.81472
H      2.21316    -1.79678    -0.12046
H     -0.17746     1.19869    -1.51282
O     -0.36616     2.06267    -1.04008
H     -0.34397     2.75282    -1.70325
H     -1.07849     2.56511     2.22997
O     -1.41689     1.94458     1.58421
H     -0.94963     2.11654     0.74907
H     -0.67639     0.08658     1.84401
O      0.04251    -0.51347     1.60614
H      0.75713     0.08015     1.28609
H      1.31650     1.69608    -0.09139
O      1.86900     1.17824     0.50923
H      2.31852     0.52142    -0.04252
H      1.05593    -0.55009    -1.80613
O      0.20818    -0.22690    -2.15244
H     -0.46969    -0.82637    -1.76857
H     -2.48599     1.30497    -0.94970
O     -3.06532     0.76173    -0.40822
H     -2.90966     1.10887     0.47616
