 27
-688.4290735694905
H      1.34353     0.92834     0.87609
O      1.89255     1.33681     0.17797
H      2.80536     1.24416     0.45424
H      1.40290    -2.49125    -0.69559
O      1.60279    -3.30131    -0.18439
H      1.63921    -4.02262    -0.81086
H     -2.06581    -1.23087    -0.22288
O     -2.12702    -2.18235    -0.02174
H     -1.92645    -2.63041    -0.84476
H      0.77204     4.23794     0.41109
O      0.78605     3.76643    -0.42158
H      1.21863     2.91160    -0.23875
H     -0.02335    -0.61131    -1.19419
O      0.87524    -0.93045    -1.36684
H      1.42535    -0.16946    -1.14203
H      0.13972    -0.74555     1.93529
O      0.13746     0.25716     1.97235
H     -0.19147     0.48569     2.84141
H      0.58872    -2.82818     1.27253
O     -0.07526    -2.35801     1.80605
H     -0.89435    -2.41108     1.27797
H     -0.68410     3.27900    -1.24997
O     -1.48696     2.84600    -1.60752
H     -2.18864     3.49555    -1.57113
H     -1.01118     0.62170     0.43654
O     -1.39687     0.41587    -0.42694
H     -1.49382     1.26314    -0.90270
