  9
-229.45876846553918
H      1.46672    -1.64058     0.67616
O      1.17340    -1.09292    -0.05218
H      0.21032    -1.21635    -0.10568
H     -1.17593     0.41800    -0.02014
O     -1.56534    -0.47362    -0.04415
H     -2.21947    -0.49339     0.65470
H      0.58441     2.07388    -0.79627
O      0.34259     1.58049    -0.01161
H      0.92575     0.80195    -0.00631
