  9
-229.4585973240491
H      1.49397    -1.54348     0.72907
O      1.19732    -1.08812    -0.05910
H      0.23814    -1.23299    -0.08592
H     -1.16395     0.41862     0.08158
O     -1.54469    -0.47610     0.04829
H     -2.47721    -0.37361    -0.14116
H      0.93110     0.80323    -0.02658
O      0.34748     1.58209    -0.01387
H      0.55955     2.07191    -0.80928
