 27
-688.430557469475
H      2.33845    -0.92864    -0.11221
O      2.38345    -0.24676    -0.79471
H      1.80246    -0.56542    -1.49915
H      0.22242    -2.14880    -1.80176
O      0.36848    -1.39755    -2.41828
H      0.46409    -1.75892    -3.29963
H      0.34741     0.84195     1.46854
O     -0.05625     0.09087     1.93579
H     -0.99700     0.15417     1.71551
H      0.17362     1.67390    -0.80142
O      0.83816     1.89907    -0.11630
H      1.57649     1.28093    -0.29451
H      0.95808    -1.22555     1.65550
O      1.58417    -1.93761     1.36883
H      2.15414    -2.13970     2.11075
H     -0.40180     2.97124     0.66223
O     -1.28068     3.28227     0.95464
H     -1.54461     3.94493     0.31456
H      0.70261    -2.90316     0.17868
O      0.11901    -3.28296    -0.50522
H     -0.71142    -3.46813    -0.06491
H     -0.76421     0.02309    -1.95609
O     -1.19128     0.82048    -1.61227
H     -1.76789     0.53863    -0.89370
H     -2.26016     1.81494     1.03297
O     -2.62108     0.90314     1.02570
H     -3.40544     0.91483     1.57517
