 27
-688.4330523427028
H      2.12164    -1.23029    -0.71738
O      1.91754    -0.91828    -1.60980
H      1.42901    -1.64617    -2.03305
H     -0.23399    -2.75679    -1.42371
O      0.13343    -2.86986    -2.32918
H      0.05543    -3.79688    -2.55315
H      0.07242     1.30685     1.99802
O      0.91236     1.01075     1.62653
H      0.83102     1.20356     0.67817
H     -0.37318     2.63530    -0.83928
O     -0.71550     3.44977    -0.41331
H     -0.07941     4.14378    -0.58999
H      1.59807    -0.55774     1.50593
O      1.89197    -1.44380     1.19389
H      2.52206    -1.79681     1.82128
H     -1.36096     2.82264     1.05932
O     -1.64447     2.23310     1.79414
H     -2.08746     2.77442     2.44624
H     -1.11920    -1.58530     0.38962
O     -0.54607    -2.34415     0.22301
H      0.30674    -2.13223     0.62932
H      0.77199     0.32993    -1.40382
O      0.06861     0.95440    -1.10615
H     -0.71022     0.40846    -0.92777
H     -2.06906     0.69246     0.97454
O     -2.18305    -0.07762     0.39116
H     -3.06891    -0.04342     0.02915
