 21
-535.4317442853442
H      1.95028    -1.44014     0.98620
O      1.35792    -0.71330     1.22610
H      1.31363    -0.21733     0.39639
H     -2.33506     0.98403    -0.11419
O     -1.58908     1.57103     0.08179
H     -1.27158     1.20720     0.91804
H      2.71325    -1.50499    -1.02331
O      3.04072    -2.19667    -0.42485
H      3.99611    -2.15565    -0.47577
H      0.60124     3.15836    -1.53827
O      0.32515     2.26167    -1.72705
H     -0.41403     2.05471    -1.10998
H      0.80985    -0.65697    -2.06060
O      1.50220    -0.15433    -1.62442
H      1.22983     0.78362    -1.72296
H     -0.23871    -0.63929     1.85743
O     -1.15869    -0.42341     2.12955
H     -1.14908    -0.28457     3.07622
H     -3.30137    -1.44668    -0.17401
O     -3.28268    -0.63204     0.32814
H     -2.63070    -0.76281     1.03683
