 27
-688.4390698568312
H      1.85218    -1.61790    -2.41889
O      1.39512    -0.99484    -1.85588
H      0.66106    -1.48746    -1.40664
H     -0.59279    -1.58244     0.30662
O     -0.71326    -1.95955    -0.58255
H     -1.49421    -1.52419    -0.95562
H      1.93169     1.23005     0.28287
O      2.58149     0.52021     0.19866
H      2.27126    -0.00452    -0.55579
H     -0.07163     1.80559    -0.54414
O      0.12486     2.00811     0.40896
H      0.24524     2.95494     0.48153
H      2.57550    -0.49120     1.62293
O      2.35710    -1.04336     2.40692
H      2.98557    -0.81991     3.09309
H     -1.87942     1.59646     0.96324
O     -2.50196     0.87042     1.08741
H     -1.96102     0.20501     1.54344
H      0.57644    -0.84127     2.20511
O     -0.22909    -0.47324     1.80007
H      0.04780     0.40037     1.48213
H      0.33307     0.51000    -2.21338
O     -0.34984     1.17890    -2.05037
H     -1.19524     0.70301    -2.04588
H     -2.80402     0.22886    -0.46385
O     -2.70690    -0.18032    -1.35580
H     -3.58103    -0.29553    -1.72515
