 27
-688.4388539914431
H      1.59345    -1.73747    -0.61125
O      2.02574    -1.43818     0.20420
H      1.29604    -1.30779     0.83447
H     -0.52096    -2.07700    -1.27025
O      0.24377    -1.87729    -1.86573
H      0.19589    -2.47352    -2.61247
H     -0.84435    -0.06745     1.19845
O     -0.19277    -0.52279     1.75155
H      0.29379     0.21962     2.14012
H     -0.70282     1.55648    -0.60366
O     -1.22197     1.72455     0.21210
H     -0.58298     2.06676     0.85330
H      3.64523     1.25281    -0.32829
O      2.74031     1.09765    -0.06035
H      2.62143     0.11595     0.04191
H      1.72612     1.81528     1.22293
O      1.02396     2.00146     1.87441
H      1.36743     2.61095     2.52572
H     -2.37659    -1.52515    -0.12973
O     -1.67862    -2.19485    -0.02681
H     -1.24765    -1.98700     0.81149
H      0.42832    -0.01147    -1.91371
O      0.46386     0.94836    -1.78466
H      1.32264     1.13543    -1.38360
H     -2.67125     0.77759    -0.15657
O     -3.27438     0.03918    -0.36442
H     -3.76770     0.30897    -1.13813
