 27
-688.4336014139941
H      0.94850    -1.71036    -2.04638
O      1.83120    -1.54825    -1.66737
H      2.36881    -2.31615    -1.86158
H     -1.34728    -1.10582    -1.90929
O     -0.72437    -1.37042    -2.64025
H     -1.25864    -1.75540    -3.33318
H      0.14867     1.49009     2.48729
O     -0.79283     1.42699     2.24131
H     -0.85388     1.75405     1.33214
H     -0.35243     1.77155    -1.11508
O     -1.08286     2.06188    -0.52470
H     -1.35886     2.92988    -0.81961
H     -1.52652    -1.65095     2.57681
O     -1.22404    -1.15868     1.81536
H     -1.14065    -0.21114     2.10582
H      2.66663     1.68849     2.34664
O      1.91434     1.16400     2.62108
H      1.91783     0.34954     2.07315
H      0.61931    -1.29330     1.26702
O      1.53897    -1.05259     1.08537
H      1.67423    -1.19780     0.14047
H      1.42106     0.44513    -1.86730
O      0.75226     1.03008    -2.24320
H      0.18810     0.40981    -2.72371
H     -2.11315     0.44799    -0.58338
O     -2.28472    -0.50096    -0.68025
H     -2.02580    -0.87440     0.17690
