 27
-688.4279836587509
H      0.97337    -1.38032    -1.01521
O      1.13726    -0.71678    -1.74202
H      1.56642    -1.20502    -2.44828
H     -0.86677    -0.56575    -2.19715
O     -1.79377    -0.33673    -2.06458
H     -2.02836    -0.76586    -1.23084
H     -0.04477     0.99675     2.43996
O      0.00976     0.62681     3.34191
H      0.13515     1.36121     3.94272
H     -0.47238     2.41926    -1.91328
O     -1.27922     2.27165    -1.39313
H     -1.65606     1.44448    -1.75177
H      0.95787    -0.79709     2.96008
O      1.47932    -1.53559     2.59224
H      2.30973    -1.55577     3.06658
H     -0.57972     1.65363     0.01825
O     -0.06663     1.09227     0.65826
H      0.62201     0.66307     0.14004
H     -0.41182    -2.25368     0.33968
O      0.53304    -2.39322     0.18613
H      0.94622    -2.16268     1.03782
H      2.08484     2.40321    -2.00151
O      1.31860     1.99797    -2.40994
H      1.33579     1.05744    -2.16475
H     -1.33517    -0.27594     0.85045
O     -1.88575    -1.05954     0.66660
H     -2.60901    -1.04966     1.29110
