 27
-688.4324622591927
H      1.60175     0.12650    -0.10410
O      1.77938     0.10303    -1.05821
H      1.47642    -0.77310    -1.35561
H      0.02432    -2.58800    -1.00426
O      0.80031    -2.40821    -1.59087
H      0.67820    -2.93560    -2.37921
H      0.48080     1.30758     1.43321
O      0.56111     0.34560     1.52782
H     -0.34342    -0.00620     1.52838
H      0.55267     2.99903    -0.18326
O      0.34391     3.08572     0.76562
H      0.96836     3.70741     1.13961
H      1.27534    -1.36321     1.62725
O      1.35873    -2.31198     1.44772
H      1.76590    -2.36077     0.57724
H     -1.53442     2.57728     0.24520
O     -2.00629     2.02306    -0.38836
H     -1.38646     1.98429    -1.12992
H     -1.57475    -2.00881     0.46088
O     -1.07899    -2.81438     0.25251
H     -0.36625    -2.85513     0.91307
H      0.64339     2.53293    -2.70624
O      0.42075     2.23455    -1.82565
H      0.94441     1.40378    -1.65252
H     -2.17093     0.49765     0.38616
O     -2.15735    -0.30289     0.96268
H     -2.92042    -0.23953     1.53966
