 21
-535.4296747485147
H     -1.08469    -2.48491    -1.61615
O     -0.74233    -2.66224    -0.73966
H     -1.31624    -2.15023    -0.12789
H      0.17315     2.60155    -0.13411
O     -0.53369     2.80465    -0.78212
H     -0.09524     2.82819    -1.63291
H      1.94754    -3.11677     0.70390
O      1.85644    -2.48274    -0.00725
H      0.92298    -2.54466    -0.30333
H     -1.90294     1.78552    -0.48858
O     -2.69478     1.23542    -0.30903
H     -3.38438     1.85102    -0.05966
H      2.44194    -0.86105    -0.02784
O      2.81896     0.04023    -0.10182
H      3.36993     0.02808    -0.88466
H      1.94090     1.37133     0.55310
O      1.44597     2.13127     0.92589
H      1.48921     2.03776     1.87725
H     -1.96417    -0.94436     1.78458
O     -2.27836    -1.16041     0.90621
H     -2.44284    -0.30124     0.46337
