 27
-688.4280337480469
H      3.10365    -0.41360     2.01406
O      2.26236    -0.37315     1.56003
H      2.32758     0.36666     0.90969
H     -1.52051    -2.10042    -0.84724
O     -1.49331    -1.67563    -1.73754
H     -1.65170    -2.36280    -2.38482
H     -0.68659     0.06654     2.18785
O     -0.34219    -0.80921     2.44573
H      0.61596    -0.72879     2.32378
H     -0.46288     2.10636     0.90942
O     -1.15645     1.55274     1.28458
H     -1.66218     1.28979     0.50519
H      0.10267     3.69517    -1.39289
O      0.12226     2.87512    -0.90020
H     -0.54939     2.28576    -1.28519
H      0.36786    -1.29919    -1.47370
O      1.26368    -1.08834    -1.18648
H      1.30555    -1.32323    -0.25115
H     -1.59629    -3.34459     1.28576
O     -1.28901    -2.61746     0.74643
H     -0.94196    -1.93505     1.38241
H      2.12890     0.55814    -1.03505
O      2.39478     1.32565    -0.50104
H      1.68192     1.96760    -0.61759
H     -2.74904     1.19424    -1.79181
O     -1.86820     1.03030    -1.45233
H     -1.68261     0.08114    -1.58581
