 27
-688.4347788248168
H      2.60603    -2.55922     1.06492
O      2.09204    -1.80845     0.77371
H      1.34193    -2.16385     0.21889
H      2.51741    -0.28423    -0.25023
O      2.32507     0.50433    -0.77474
H      1.62025     0.22757    -1.37741
H      0.80780    -0.06464     3.21259
O      0.61671     0.01022     2.27728
H      1.22722    -0.59044     1.80985
H     -0.35844     2.38465    -0.34243
O     -1.08258     2.29564    -1.03052
H     -1.18129     3.16052    -1.42599
H     -0.53426     0.75478    -1.88835
O     -0.05995    -0.02497    -2.22555
H     -0.09260    -0.00055    -3.18249
H     -0.74742    -2.19170     0.02035
O     -0.05748    -2.40138    -0.64789
H     -0.11142    -1.68932    -1.30153
H     -2.30690    -0.74544     0.83415
O     -1.71112    -1.38282     1.25921
H     -1.06388    -0.84476     1.73385
H      0.74988     1.73044     1.41701
O      0.92920     2.33707     0.68104
H      1.58031     1.83970     0.14255
H     -2.46554     1.21647    -0.47265
O     -3.09562     0.53558    -0.18839
H     -3.58698     0.27456    -0.96692
