  9
-229.45877824085298
H      1.49092    -1.56387     0.69626
O      1.14941    -1.08852    -0.06206
H      0.18282    -1.18638    -0.01298
H     -2.22827    -0.38056    -0.51548
O     -1.56045    -0.42876     0.16875
H     -1.16791     0.45942     0.21999
H      0.65315     2.19186    -0.60959
O      0.37853     1.60248     0.09314
H      0.93928     0.81112     0.01221
