 27
-688.4344704614406
H      2.62414    -1.32229    -1.14729
O      1.84847    -0.84462    -0.85222
H      1.07502    -1.46482    -0.93668
H     -0.65985    -2.77263    -0.39773
O     -0.36373    -2.27892    -1.18170
H     -1.02161    -1.58443    -1.32127
H      1.61214     1.84832     0.90214
O      1.37756     0.96455     1.23253
H      1.69398     0.33984     0.55752
H      1.83991     3.89152    -0.72630
O      1.26313     3.24343    -0.32286
H      0.95782     2.64524    -1.04218
H     -0.31496     1.34922     1.06697
O     -1.26614     1.56794     0.95479
H     -1.27474     2.50264     0.73511
H     -0.87456    -2.50275     1.73649
O     -1.06299    -3.33540     1.26147
H     -0.67089    -4.03699     1.78061
H     -1.15663    -0.18836     2.23847
O     -0.50542    -0.87691     2.40377
H      0.33806    -0.42600     2.26816
H      1.12563     0.60588    -1.77658
O      0.54044     1.32052    -2.07033
H     -0.34305     0.93098    -2.02785
H     -1.81224     0.60096    -0.45041
O     -1.90248     0.12587    -1.29996
H     -2.80657     0.22908    -1.59644
