 27
-688.4421289420619
H      2.58919    -1.89064    -0.85525
O      1.87848    -1.26926    -0.69658
H      1.02917    -1.76914    -0.83340
H     -0.95935    -2.50117    -0.34091
O     -0.48368    -2.38563    -1.18344
H     -0.93441    -1.63992    -1.60739
H      1.60697     1.37117     1.04752
O      1.82195     0.53241     1.48320
H      1.95604    -0.10210     0.75968
H      1.17756     3.50996    -0.25032
O      0.89210     2.60436    -0.13887
H      1.00519     2.13914    -1.00688
H     -1.33607     0.84203     1.35230
O     -1.53108     1.34157     0.54724
H     -0.76398     1.92114     0.41552
H     -2.66345    -1.65574     1.08706
O     -1.81848    -2.09269     1.19890
H     -1.28911    -1.49127     1.74783
H     -0.40556    -0.13309     3.61354
O     -0.43804    -0.18234     2.65909
H      0.47248     0.03435     2.32672
H      1.50348     0.20460    -1.80541
O      1.04025     0.95476    -2.21017
H      0.12873     0.64732    -2.33288
H     -2.40737     0.37302    -2.32041
O     -1.62697     0.10179    -1.84067
H     -1.67301     0.51764    -0.94786
