 27
-688.4399432039459
H      2.50879    -1.65485    -1.40532
O      1.81847    -1.02541    -1.20079
H      0.94970    -1.50970    -1.26352
H     -0.99392    -2.03334    -0.40872
O     -0.63933    -1.99004    -1.31760
H     -1.11850    -1.26905    -1.75057
H      1.44220     1.17527     1.10563
O      1.38790     0.22476     1.28855
H      1.67497    -0.22475     0.47677
H      1.34287     3.60812     0.15368
O      0.95825     2.73386     0.16934
H      0.98205     2.37977    -0.75613
H     -0.57553     0.49553     0.95321
O     -1.26846     1.10673     0.65890
H     -0.79065     1.94600     0.58811
H     -2.10306    -0.86016     1.25667
O     -1.68135    -1.72264     1.21686
H     -1.09020    -1.74514     1.98824
H      0.14870    -0.95478     4.03409
O      0.21029    -1.37196     3.17553
H      0.76754    -0.79402     2.62031
H      1.36825     0.60975    -1.94356
O      0.90296     1.43431    -2.15095
H      0.00004     1.16411    -2.36844
H     -1.75615     0.78502    -1.04200
O     -1.75383     0.53226    -1.98785
H     -2.62373     0.71808    -2.33918
