 27
-688.4287385996209
H     -2.20501     1.86772     1.82735
O     -1.48079     1.81336     1.20590
H     -1.77636     1.21028     0.46392
H      0.46164    -1.91858    -2.16389
O      0.13363    -2.82363    -2.30096
H      0.90558    -3.38939    -2.26689
H     -1.95307    -0.77404    -0.46138
O     -1.98114     0.15613    -0.78150
H     -1.21387     0.20653    -1.36940
H     -0.44962     3.06841     0.53631
O      0.21839     3.65734     0.13435
H      0.08758     4.52998     0.50344
H      1.37278     0.46460    -1.29901
O      0.81227    -0.32143    -1.35220
H      0.67394    -0.57024    -0.42623
H      0.13369     0.86599     1.56935
O      0.90126     0.28233     1.48111
H      1.57580     0.80459     1.02432
H      0.25367    -2.62997     2.82143
O      0.42909    -2.40398     1.90842
H      0.67484    -1.46273     1.89624
H      1.56230     2.65379    -0.24775
O      2.20351     1.91679    -0.34556
H      3.06317     2.29643    -0.51687
H     -0.87450    -2.53181     0.62556
O     -1.51254    -2.41334    -0.09519
H     -1.06418    -2.74749    -0.88993
