 21
-535.4315462066171
H     -2.01869    -0.52074     0.40219
O     -2.34923    -1.40107     0.11046
H     -2.87241    -1.24599    -0.67579
H     -1.64860     1.84219     0.42414
O     -1.39037     1.01829     0.86246
H     -0.44082     1.14751     0.97404
H      1.85230     0.16233    -1.94950
O      2.25591     0.25629    -1.08493
H      2.15713    -0.61833    -0.64968
H     -1.12491     3.68981    -1.34030
O     -1.11399     3.47195    -0.40837
H     -0.20002     3.21769    -0.19801
H      1.04140    -2.56344     0.18819
O      1.93732    -2.19001     0.04085
H      2.49707    -2.93885    -0.16606
H      1.61146     1.48443    -0.11910
O      1.19084     2.17535     0.44778
H      1.83591     2.42640     1.10893
H     -0.67326    -3.72517     1.30006
O     -0.48767    -3.34078     0.44252
H     -1.18564    -2.66477     0.30019
