 27
-688.4316610877033
H      1.48549    -1.76295    -0.95591
O      2.11986    -1.21587    -0.43283
H      2.84645    -1.79764    -0.20061
H     -0.52222    -2.54080    -1.08019
O      0.22433    -2.56517    -1.73516
H     -0.13542    -2.21522    -2.55294
H      1.01846    -0.91734     1.19244
O      0.20104    -0.92189     1.70532
H     -0.09975    -0.00309     1.76170
H     -0.02405     2.34668    -0.85118
O      0.30556     2.91218    -0.12957
H      1.23143     2.63364    -0.02499
H      3.53231     1.69132    -0.28407
O      2.67670     1.47522     0.08672
H      2.50754     0.54497    -0.12592
H     -0.52072     2.19940     1.10521
O     -1.00083     1.61461     1.75807
H     -1.02925     2.08106     2.59312
H     -2.24188    -1.52817     0.08018
O     -1.60578    -2.25187     0.17084
H     -0.99831    -1.93435     0.86881
H      0.30518     0.13938    -1.33199
O     -0.44289     0.68941    -1.57316
H     -1.22293     0.35061    -1.10428
H     -2.24009     0.75288     0.82292
O     -2.70983     0.28195     0.11023
H     -3.49982     0.78104    -0.09559
