 21
-535.4320672014433
H      0.03455    -0.01255    -1.40668
O      0.70757     0.51259    -0.92811
H      1.54171     0.35485    -1.39194
H      0.19134     1.98757    -0.09710
O     -0.15993     2.72998     0.43347
H     -0.95078     3.02931    -0.01803
H     -1.17004    -1.73589     0.89213
O     -1.74353    -2.29001     0.31144
H     -1.79069    -3.15599     0.71598
H     -1.37458    -1.66654    -1.26257
O     -1.12428    -1.16830    -2.07152
H     -1.95168    -0.85990    -2.44436
H      2.33021    -1.17822    -2.86358
O      2.84835    -0.46623    -2.47841
H      3.58172    -0.90501    -2.04263
H     -0.29706     2.15005     2.08573
O     -0.35214     1.67710     2.94262
H      0.24054     2.13282     3.54181
H      0.45437    -0.27119     0.86447
O      0.01112    -0.69767     1.61162
H     -0.16104     0.02877     2.23686
