 18
-458.9450404746914
H      0.68603    -1.47644     0.28250
O     -0.16677    -1.83966     0.56220
H     -0.30742    -1.47390     1.45304
H     -0.36165     0.58169     2.17382
O     -0.49458    -0.19117     2.76284
H      0.01705    -0.02163     3.55483
H      0.28283     1.48732    -2.92817
O      0.38761     0.57753    -2.64652
H     -0.44366     0.32638    -2.20226
H      0.81198     1.25448     0.47834
O     -0.03096     1.62201     0.77529
H     -0.65969     1.30657     0.11286
H      1.49185     0.12532    -1.36358
O      1.88502    -0.09336    -0.49272
H      2.80744    -0.29559    -0.64403
H     -1.19632    -0.92347    -0.42229
O     -1.61525    -0.20371    -0.96160
H     -2.56033    -0.34044    -0.92334
