  9
-229.45878459848188
H      1.39225    -1.76488     0.37384
O      1.11508    -1.07623    -0.23164
H      0.14743    -1.15759    -0.28897
H     -1.21248     0.38733     0.30668
O     -1.60267    -0.43495    -0.03572
H     -2.20868    -0.16876    -0.72729
H      0.67693     2.23311     0.17805
O      0.34125     1.46995     0.64881
H      0.90504     0.72273     0.38230
