 27
-688.4417285584384
H      2.33975    -2.01488    -1.29790
O      1.71476    -1.36093    -0.98556
H      0.81147    -1.77436    -1.04986
H     -1.17805    -2.38717    -0.35665
O     -0.78835    -2.21264    -1.23047
H     -1.21464    -1.38917    -1.51518
H      1.84244     1.14006     0.96242
O      1.96530     0.25046     1.32783
H      1.99521    -0.33711     0.55513
H      1.60923     3.41899    -0.18102
O      1.23012     2.54772    -0.07649
H      1.16906     2.13291    -0.97487
H     -1.12186     1.02455     1.48778
O     -1.30025     1.62754     0.75202
H     -0.46760     2.09910     0.59293
H     -1.26461    -1.48572     1.79750
O     -1.75544    -2.19124     1.34580
H     -1.83597    -2.90991     1.97252
H     -0.18451    -0.11654     3.58878
O     -0.28799    -0.22426     2.64386
H      0.61289    -0.11407     2.23965
H      1.34430     0.22348    -1.93587
O      0.91729     1.04027    -2.23803
H     -0.02902     0.82965    -2.26836
H     -2.60220     0.67549    -1.94498
O     -1.75395     0.40495    -1.59663
H     -1.66964     0.81532    -0.70159
