 27
-688.4421562835411
H      2.35351    -2.03158    -1.17049
O      1.72345    -1.35729    -0.91579
H      0.82046    -1.76451    -1.00801
H     -1.19198    -2.34303    -0.40184
O     -0.76865    -2.21146    -1.26955
H     -1.17364    -1.39869    -1.60765
H      1.85583     1.16789     1.00701
O      2.03140     0.28404     1.36394
H      2.04700    -0.30370     0.59034
H      1.52118     3.42509    -0.10301
O      1.15868     2.54384    -0.02605
H      1.15848     2.13388    -0.92855
H     -1.09340     0.87333     1.52645
O     -1.30782     1.45106     0.78075
H     -0.50417     1.97159     0.62301
H     -1.25914    -1.47270     1.76089
O     -1.89705    -1.96938     1.22292
H     -2.68784    -1.42916     1.20670
H     -0.07397    -0.35987     3.61734
O     -0.18834    -0.32908     2.66840
H      0.70845    -0.16617     2.27391
H      0.04628     0.82516    -2.27108
O      0.98973     1.03928    -2.20390
H      1.40875     0.22248    -1.89012
H     -2.49463     0.78843    -2.06385
O     -1.71026     0.41075    -1.67026
H     -1.64522     0.76173    -0.75114
