  9
-229.45025368947847
H      0.97256    -2.91785    -0.44730
O      1.56591    -2.19502    -0.23176
H      1.80224    -2.33411     0.68781
H      0.33375     0.84274    -0.94497
O      0.01894     0.18690    -0.31724
H      0.62393    -0.56468    -0.37983
H     -2.04098     2.67125     0.86966
O     -1.41705     2.51389     0.16092
H     -1.12644     1.59703     0.25902
