  9
-229.4587814747914
H      1.22784    -0.27829     0.29442
O      1.09074    -1.24175     0.27770
H      1.35866    -1.56033     1.13984
H     -0.67122    -0.95334    -0.43970
O     -1.38860    -0.34304    -0.68180
H     -2.14733    -0.61279    -0.16424
H     -0.24653     1.14284    -0.31105
O      0.61232     1.50270    -0.02962
H      0.93823     1.99891    -0.78140
