 27
-688.4335798054057
H      0.89882    -1.63503    -2.86642
O      0.64245    -1.25850    -2.02476
H      0.58153    -0.27311    -2.15203
H      1.71604    -1.29673    -0.45641
O      2.08063    -1.07605     0.41509
H      1.58886    -1.62151     1.04488
H     -2.11153    -0.54404     2.67029
O     -1.44361    -0.39607     2.00048
H     -0.70578    -0.98274     2.22088
H     -1.54802     2.54749    -0.52290
O     -1.72123     2.63287    -1.48958
H     -2.64809     2.43842    -1.62274
H     -0.22427     1.85407    -2.10146
O      0.63413     1.39604    -2.16126
H      1.09201     1.64316    -1.34351
H     -0.63491    -1.93087    -0.94626
O     -1.22584    -2.21762    -0.23085
H     -1.54394    -1.39780     0.16912
H      0.43457    -3.50238     2.25940
O      0.27083    -2.62897     1.90555
H     -0.29429    -2.73601     1.10151
H      1.86896     0.60875     0.55587
O      1.72320     1.58195     0.47311
H      2.54071     2.01337     0.72077
H      0.02934     2.16610     0.93729
O     -0.92898     2.22801     1.05920
H     -1.17133     1.37131     1.43431
