 18
-458.9441763516512
H      1.80112    -0.42738     0.15126
O      1.60151    -0.09983    -0.75740
H      2.20913    -0.53889    -1.35274
H     -0.96408    -1.58555     0.94029
O     -0.63229    -2.00281     1.76845
H     -0.99656    -2.88777     1.78966
H     -0.28878    -0.63122    -0.90498
O     -1.18502    -0.85653    -0.62302
H     -1.70503    -0.05901    -0.82065
H      0.90104     1.54909    -0.84802
O      0.43826     2.40446    -0.88226
H      0.66750     2.86185    -0.07177
H      2.06292    -0.59927     2.51828
O      1.91383    -1.09504     1.71232
H      1.02258    -1.50081     1.81307
H     -1.26427     2.02221    -1.13274
O     -2.16249     1.64531    -1.22962
H     -2.50447     1.97345    -2.06230
