  9
-229.45877324294818
H      1.52323    -1.78470     0.31780
O      1.12922    -1.14578    -0.27649
H      0.16619    -1.24170    -0.17336
H     -1.16987     0.40364     0.12492
O     -1.57424    -0.47808     0.05391
H     -2.16724    -0.42431    -0.69646
H      0.78795     1.98760     0.79658
O      0.37261     1.53297     0.06377
H      0.93004     0.75729    -0.11861
