  9
-229.45876776730248
H      1.40717    -1.70981     0.71710
O      1.14434    -1.18241    -0.03820
H      0.17857    -1.28245    -0.09561
H     -1.19666     0.33954     0.17018
O     -1.57785    -0.53999     0.00648
H     -2.21056    -0.42515    -0.70250
H      0.91590     0.70097     0.18661
O      0.34637     1.48340     0.29147
H      0.68100     2.13634    -0.32373
