 27
-688.4301073640487
H      2.24708    -0.30128    -1.71927
O      1.77254    -0.54065    -2.52497
H      1.29005    -1.33161    -2.25655
H     -0.73467    -1.26395    -1.00303
O     -0.01837    -1.83451    -0.66886
H     -0.40650    -2.23168     0.12900
H     -0.06577     0.74923     2.55398
O     -0.96548     0.41765     2.45160
H     -1.33151     1.02550     1.79474
H     -0.47743     1.87950    -0.80916
O     -0.79428     1.96144     0.11362
H     -0.00834     2.14790     0.64814
H     -1.54826    -2.72522     2.44827
O     -1.41858    -2.16281     1.68604
H     -1.24114    -1.25640     2.01753
H      1.80639     0.99430     1.21437
O      1.45471     1.71631     1.77359
H      2.15608     2.35453     1.89676
H      1.27649    -0.92713     0.00446
O      2.10893    -0.47874     0.28642
H      2.62901    -1.14936     0.73032
H      0.50162     0.67491    -2.60276
O     -0.24799     1.27998    -2.44454
H     -1.04089     0.74370    -2.54416
H     -1.85593     0.59366    -0.42337
O     -2.20668    -0.17883    -0.90227
H     -2.69385    -0.70427    -0.26349
