 18
-458.94029217113695
H      2.34032     0.02779     0.41145
O      2.53591     0.26240    -0.51935
H      2.94798    -0.51632    -0.89526
H     -1.04588    -1.35910     0.25399
O     -0.70567    -1.54009     1.16094
H     -1.08870    -2.37671     1.42447
H     -1.01437    -0.40524    -1.69371
O     -1.71879    -0.90338    -1.25637
H     -2.27078    -0.18989    -0.90159
H      1.04505     0.79133    -1.15556
O      0.20842     1.10904    -1.56453
H      0.45710     1.71938    -2.25829
H      1.61747    -0.10601     2.80086
O      1.71286    -0.50863     1.93851
H      0.84743    -0.89545     1.70202
H     -1.24506     1.57443    -0.41519
O     -2.10391     1.52563     0.03463
H     -1.89360     1.39320     0.96059
