  9
-229.4587751539118
H      1.26428    -0.08796     0.15489
O      1.25973    -1.05706     0.07306
H      1.85222    -1.26009    -0.65095
H     -0.65314    -1.02941     0.00199
O     -1.49340    -0.53970     0.01505
H     -1.94751    -0.83869     0.80382
H      0.29687     2.23551    -0.60249
O      0.32705     1.59188     0.10573
H     -0.51401     1.10445     0.05837
