 27
-688.430130185364
H     -1.45103     0.27599     1.53667
O     -0.96599     0.30113     2.37790
H     -0.31489     1.01740     2.25861
H     -0.51439    -2.34697    -1.36680
O     -1.18049    -1.96337    -1.96252
H     -0.74695    -1.82960    -2.80609
H     -0.76863    -2.70462     2.79805
O     -0.07159    -2.22205     2.35218
H     -0.33003    -1.26638     2.41990
H      0.13828     2.53504    -1.56144
O     -0.61065     2.72367    -0.95867
H     -0.99830     3.55818    -1.21905
H      1.58422     1.01499    -1.74703
O      1.54903     1.80224    -2.32322
H      2.42830     2.18229    -2.32077
H      0.21747    -0.04210    -0.26340
O      1.17276    -0.14999    -0.44619
H      1.32812    -1.10207    -0.41490
H      1.29335    -3.65454    -0.03105
O      0.71853    -2.89301    -0.10361
H      0.40972    -2.67918     0.81490
H      1.37216     1.42871     0.91953
O      0.86352     2.09650     1.39522
H      0.31114     2.49320     0.70857
H     -1.54637     1.07306    -0.72998
O     -1.61763     0.20124    -0.31719
H     -1.68853    -0.48419    -1.00285
