 27
-688.430527077804
H      4.36995    -0.17697     0.18465
O      3.60568     0.12928     0.67172
H      2.90695    -0.53032     0.53038
H     -1.20943    -2.74672    -1.80093
O     -1.25397    -2.03138    -1.16621
H     -1.74972    -2.35551    -0.37858
H      2.42820     1.53904     0.35743
O      1.56330     1.91630     0.13089
H      1.51202     2.01599    -0.83536
H     -0.02643     2.04254     0.83101
O     -0.97261     1.88991     1.03804
H     -1.32985     2.70285     1.39233
H      1.05329     0.05455    -0.17391
O      1.10043    -0.90038    -0.00346
H      0.38609    -1.31590    -0.50938
H     -1.01294     0.21266     1.78050
O     -0.82779    -0.69655     2.05964
H      0.02759    -0.89283     1.64458
H     -3.36511    -2.45522     1.38657
O     -2.45345    -2.62087     1.14644
H     -1.90929    -1.94944     1.62543
H     -0.10356     1.29049    -2.19480
O      0.79056     1.63709    -2.42505
H      0.83431     1.74195    -3.37444
H     -1.56809     1.09104    -0.57140
O     -1.54422     0.71563    -1.46256
H     -1.56423    -0.24569    -1.35490
