 27
-688.4307866013606
H      0.92007    -2.18634     0.47691
O      0.66609    -3.09027     0.21366
H      0.86339    -3.14146    -0.72570
H      0.73849    -0.65634    -1.21814
O      0.20871    -0.63327    -2.02904
H     -0.70466    -0.79016    -1.73774
H      1.94411     2.33524     1.12665
O      2.59664     1.92759     0.52128
H      3.47002     2.18858     0.81300
H     -1.72934     0.67364     0.08413
O     -1.17865     1.39544     0.42323
H     -0.75939     1.79244    -0.37061
H      0.41259     0.08200     0.91236
O      1.20572    -0.40877     0.65176
H      1.89409     0.27588     0.57874
H      0.30386     2.70475     3.00638
O      0.50147     2.74092     2.07084
H     -0.23933     2.30696     1.60377
H     -2.30066    -3.48612     1.30938
O     -2.02829    -3.22378     0.42994
H     -1.04700    -3.28263     0.41028
H      0.30631     1.16307    -2.08901
O      0.29067     2.08703    -1.76518
H      1.18624     2.28048    -1.47336
H     -2.28748    -1.72755    -0.32430
O     -2.33625    -0.87157    -0.80691
H     -3.13404    -0.89573    -1.33736
