 18
-458.9389411198718
H      0.92482     0.20858    -0.82501
O      1.61057     0.84481    -0.56974
H      2.40858     0.55622    -1.01471
H     -0.14360    -1.87848    -0.65156
O      0.51136    -2.45462    -0.21840
H      0.08588    -3.30511    -0.11034
H     -0.71182    -0.12140     1.88108
O     -1.63001     0.10593     1.61091
H     -1.80306     0.98284     1.95759
H     -1.44565    -0.21351    -0.15383
O     -1.04353    -0.33555    -1.03685
H     -1.13704     0.52774    -1.46123
H      1.39309     0.08846     1.29433
O      0.98632    -0.57906     1.86012
H      0.96696    -1.36612     1.29270
H     -0.51553     3.19010    -1.98532
O     -0.56493     2.33900    -1.55420
H      0.30125     2.17571    -1.15401
