  9
-229.4587767341317
H      1.79924    -1.07271    -0.44066
O      1.38448    -0.51900     0.22113
H      0.48859    -0.87697     0.34344
H     -2.05496    -0.92219    -0.36970
O     -1.41907    -0.63168     0.28447
H     -1.27889     0.31699     0.11782
H     -0.00099     2.45825     0.56925
O     -0.11860     1.81604    -0.13174
H      0.64746     1.22010    -0.06635
