  9
-229.45877570515128
H      1.55718    -1.33490     0.45922
O      1.14674    -0.82219    -0.23811
H      0.19476    -1.01111    -0.17160
H     -1.28725     0.47803     0.24539
O     -1.60323    -0.43242     0.11591
H     -2.28553    -0.37972    -0.55352
H      0.35106     2.44266    -0.44106
O      0.14728     1.76024     0.19882
H      0.77253     1.03501     0.02450
