 18
-458.93397544420793
H      1.20760    -1.12862     0.79414
O      0.51736    -1.80694     0.83449
H      0.64164    -2.28112    -0.00115
H     -2.04372     0.08145     0.48225
O     -1.52368    -0.35935    -0.20587
H     -0.90535    -0.95351     0.27256
H      1.31285    -1.10403    -1.69625
O      0.69359    -1.80335    -1.93037
H     -0.16627    -1.37306    -1.86538
H     -0.61139     1.09425    -0.61236
O     -0.01403     1.87322    -0.54356
H     -0.15946     2.41258    -1.32132
H      3.01810     0.69777     0.27990
O      2.20779     0.28749    -0.02038
H      1.55270     0.99121    -0.16288
H     -1.65161     1.28096     2.66586
O     -1.97578     1.55253     1.80584
H     -1.21961     1.98224     1.39057
