 27
-688.433800337955
H      2.43799    -0.40032    -0.96757
O      1.76240    -0.57126    -1.62953
H      1.29397    -1.34528    -1.27789
H     -0.34086    -2.55805     0.14323
O      0.59321    -2.63155    -0.16393
H      0.80323    -3.56426    -0.20343
H      1.65415     2.06705     0.52755
O      2.37555     1.48557     0.24179
H      2.29053     1.49376    -0.71678
H     -0.13760     2.37237    -0.63954
O     -0.06733     2.79353     0.25176
H     -0.29894     3.71627     0.15895
H      1.83623     0.05286     1.26677
O      1.33465    -0.63967     1.72759
H      1.33258    -1.40967     1.14236
H     -0.86845     1.40063     1.38023
O     -1.13882     0.48981     1.56647
H     -0.29640     0.02541     1.76405
H     -2.32875    -1.74492    -0.01397
O     -1.92977    -2.25795     0.70344
H     -1.87252    -1.61819     1.42140
H      0.43763     0.63844    -2.01374
O     -0.26660     1.30771    -1.99045
H     -1.08183     0.81586    -1.81636
H     -2.08960     0.25259     0.11056
O     -2.51944     0.05051    -0.75215
H     -3.37965     0.47085    -0.74375
