 15
-382.4486897522928
H      0.45128     1.10591    -1.56680
O      0.25966     0.46722    -2.28715
H     -0.44619     0.85869    -2.80227
H     -0.23135    -1.82123     0.45707
O     -0.52272    -1.68663     1.38547
H     -1.30894    -2.22284     1.48688
H     -0.40430    -0.00639     1.77331
O     -0.36645     0.96005     1.93620
H     -1.23135     1.20269     2.26721
H      0.31678     1.75401     0.56499
O      0.71790     2.16788    -0.22991
H      1.59554     2.44174     0.03857
H      0.21264    -1.12675    -1.62179
O      0.22204    -2.00830    -1.19135
H      1.07243    -2.39130    -1.40904
