 27
-688.4360365328599
H      1.09872     1.14545     1.12084
O      0.73491     1.63727     0.36915
H      1.14032     1.24477    -0.42206
H      1.90870    -1.10540    -0.96471
O      1.96900    -1.73664    -0.23057
H      1.10567    -2.18456    -0.24673
H     -0.73722    -2.18450     2.67785
O     -0.71890    -1.23681     2.82525
H      0.19600    -0.95470     2.64611
H     -0.36079     2.84814    -0.46449
O     -1.02148     3.17140    -1.10077
H     -1.59526     3.76849    -0.61988
H     -1.08506    -1.51074    -0.01679
O     -0.73238    -2.34130    -0.38612
H     -1.10084    -2.41268    -1.26795
H      1.96392    -0.91464     1.19636
O      1.79986    -0.36211     2.01000
H      2.59872    -0.38986     2.53564
H      0.19155     0.25925    -2.19287
O      1.16841     0.20821    -2.06228
H      1.57804     0.55086    -2.85607
H     -1.46784     1.58506    -1.98541
O     -1.48932     0.62502    -2.13475
H     -1.87765     0.27879    -1.31862
H     -1.04632     0.79073     0.59389
O     -1.68887     0.06502     0.63650
H     -1.58229    -0.32804     1.52409
