  9
-229.4587799680701
H      1.48786    -1.67062     0.65031
O      1.22069    -1.10434    -0.07466
H      0.25460    -1.20082    -0.13448
H     -1.11514     0.42110     0.15409
O     -1.50053    -0.44944    -0.04430
H     -2.09930    -0.30943    -0.77798
H      0.76929     2.22332    -0.27392
O      0.42883     1.55463     0.32068
H      0.99754     0.77412     0.19974
