 24
-611.9376589763185
H      2.33886     2.67690    -0.72499
O      1.58753     2.11779    -0.53180
H      1.00421     2.60148     0.09113
H      0.54078    -1.98436    -2.72049
O      0.36553    -1.71320    -1.82039
H     -0.04665    -0.81325    -1.86682
H     -1.23394    -0.00148     1.24094
O     -1.75185     0.74058     0.80882
H     -2.67352     0.54868     0.97789
H      0.55072    -0.99732     1.52433
O     -0.33998    -1.19662     1.87607
H     -0.59340    -2.03475     1.45138
H     -1.07530     0.84228    -0.94834
O     -0.53263     0.77587    -1.75040
H      0.26173     1.29024    -1.54670
H      1.84237     0.36020     0.06446
O      1.85874    -0.56873     0.33494
H      1.59573    -1.06806    -0.44757
H     -0.42511    -4.16716     0.15746
O     -0.83542    -3.30241     0.14441
H     -0.42470    -2.81272    -0.58824
H     -0.92904     2.30052     1.05179
O     -0.34562     3.08446     1.06563
H     -0.91042     3.85720     1.05527
