  9
-229.4511904658848
H      1.05495    -2.72434     0.54698
O      1.10774    -2.03045    -0.11125
H      0.45614    -1.36120     0.15219
H     -0.86158     0.69639     0.14037
O     -0.96481    -0.24918     0.32595
H     -1.44236    -0.60547    -0.42610
H     -0.25113     3.01344     0.60437
O     -0.43290     2.51422    -0.19456
H      0.39900     2.51195    -0.67403
