 27
-688.434939933748
H      1.15002    -0.63679    -3.73633
O      0.95468    -0.18143    -2.91809
H      0.65714    -0.85183    -2.27473
H     -0.08194    -2.21666    -0.15533
O     -0.12396    -1.54566    -0.86352
H     -1.00771    -1.14573    -0.83047
H      1.26033     1.23571     0.43935
O      1.36015     0.31310     0.72198
H      1.04505    -0.24376    -0.00962
H     -0.01524     2.57747    -0.87102
O      0.41883     2.83826    -0.01693
H      0.77295     3.71943    -0.12713
H      1.61983    -0.71509     2.13501
O      1.54378    -1.42577     2.80096
H      1.52628    -1.01026     3.66253
H     -0.80587     2.05342     1.23182
O     -1.18078     1.24319     1.60922
H     -0.40755     0.66449     1.67506
H      0.63167    -3.98626     1.27652
O      0.10804    -3.18483     1.30914
H      0.56853    -2.59408     1.93734
H     -0.14903     1.18120    -2.53939
O     -0.79213     1.79324    -2.14137
H     -1.49004     1.22860    -1.78061
H     -2.06198     0.50402     0.34611
O     -2.36971     0.09533    -0.49971
H     -3.29487    -0.12516    -0.40133
