 27
-688.4289566332178
H      1.39817     0.35040     0.33630
O      1.28720     0.46755    -0.61852
H      0.98973    -0.39675    -0.96937
H     -0.27990    -2.35095    -0.65516
O      0.03242    -1.80215    -1.41197
H     -0.76629    -1.49198    -1.84560
H      1.13274     0.26548     2.91793
O      0.94781    -0.18194     2.09377
H     -0.02322    -0.28882     2.01829
H     -0.42264     3.46358    -1.56129
O     -1.37607     3.60447    -1.38565
H     -1.44806     4.42523    -0.89750
H      1.69689    -1.75717     1.62234
O      1.85022    -2.69636     1.42584
H      2.42432    -2.72752     0.65892
H     -1.71586     1.89813    -0.90013
O     -1.54439     0.96425    -0.68044
H     -0.58959     0.85669    -0.81702
H     -1.19101    -2.34658     1.24586
O     -0.78737    -3.10044     0.79514
H      0.10365    -3.19280     1.17351
H      1.59972     2.87465    -2.70092
O      1.25131     2.94844    -1.81079
H      1.38398     2.07708    -1.38932
H     -1.73504     0.06936     0.73273
O     -1.66315    -0.47795     1.55551
H     -2.44558    -0.31976     2.08374
