 15
-382.4483469915717
H     -1.00199     0.96958    -1.63961
O     -1.73552     0.42810    -1.97235
H     -1.79775     0.61097    -2.90978
H      0.08757    -1.62987     0.98068
O      0.27681    -1.55310     1.94148
H      0.81890    -2.30738     2.17433
H      0.57345     0.17894     2.02713
O      0.63801     1.14837     1.89438
H     -0.11952     1.51471     2.35370
H      0.63398     1.36797     0.19610
O      0.62326     1.39452    -0.79004
H      1.35591     1.94523    -1.06414
H     -0.82244    -1.09801    -1.17516
O     -0.00528    -1.41930    -0.76624
H      0.58720    -0.67397    -0.92347
