 18
-458.94538169194186
H      1.76303     1.04724    -0.24748
O      1.54391     0.33810    -0.87414
H      1.43164    -0.44500    -0.31818
H      1.86909     2.59219     1.96655
O      1.50816     2.14035     1.20341
H      0.67889     1.70097     1.48986
H     -1.46321    -2.45685    -2.02270
O     -1.55573    -2.01755    -1.17676
H     -1.54792    -1.05973    -1.36338
H     -1.25600     0.75998     0.82588
O     -0.73366     0.63725     1.62669
H     -0.35787    -0.24857     1.50568
H      0.66110    -2.54755     1.14253
O      0.37949    -1.75823     0.68219
H     -0.32791    -2.01750     0.05236
H     -1.26293     1.39959    -1.97229
O     -1.05983     0.65719    -1.40553
H     -0.07396     0.62299    -1.32332
