 18
-458.9400438928662
H      2.81370    -1.92500    -1.27498
O      2.01440    -1.40025    -1.22083
H      2.28707    -0.49774    -0.96334
H     -2.49703    -0.04049    -0.36512
O     -2.45834    -0.96830    -0.66925
H     -3.32597    -1.34464    -0.51800
H      0.62967    -1.64086    -0.04741
O     -0.05796    -1.49493     0.62406
H     -0.90005    -1.48955     0.13836
H      0.40578     1.02702     2.44225
O      0.27892     0.98380     1.49461
H      0.16211     0.01424     1.27399
H      1.75007     1.25839     0.31047
O      2.44953     1.17744    -0.35963
H      2.22850     1.81432    -1.03988
H     -1.36837     1.55051     0.71972
O     -2.21769     1.61743     0.25158
H     -2.07307     2.24724    -0.45518
