 27
-688.4349189131484
H      2.52849    -0.22620     0.74340
O      2.79351     0.19155    -0.08655
H      2.21995     0.96558    -0.18408
H      0.79544    -1.70858    -1.17419
O      1.36704    -1.33925    -1.86358
H      2.07181    -0.87114    -1.37600
H     -3.54375    -0.82374    -1.20278
O     -2.69577    -0.46913    -0.93797
H     -2.82459     0.06471    -0.12310
H      0.24124     1.60194    -1.12104
O      0.74961     2.08919    -0.41638
H      0.96593     2.94876    -0.77652
H     -1.27520    -1.50837    -0.24467
O     -0.50662    -1.58895     0.33752
H     -0.52143    -0.76778     0.85572
H      0.30803     1.38133     1.21133
O     -0.10077     0.79411     1.87086
H      0.60634     0.25783     2.25231
H      1.01565    -1.80453     1.40575
O      1.62673    -1.34789     2.00925
H      2.16501    -2.01361     2.43477
H      0.19997    -0.08331    -2.33359
O     -0.45770     0.64303    -2.26773
H     -1.29125     0.24240    -1.97790
H     -1.85463     0.99691     1.67911
O     -2.76084     1.03758     1.31847
H     -2.97297     1.96816     1.24139
