 21
-535.4452263172886
H     -0.60877     0.50649    -1.81235
O     -0.02734     1.26959    -1.96641
H     -0.40829     1.93244    -1.37342
H     -1.92928     0.43385    -0.23966
O     -1.72204    -0.44260    -0.59396
H     -1.40985    -0.94815     0.16703
H      1.57503    -1.41386    -0.70939
O      1.06675    -2.24490    -0.69463
H      0.38130    -2.13942    -1.36114
H     -1.68377     2.84097     0.89624
O     -1.28171     2.13690     0.39055
H     -0.57547     1.73295     0.94855
H      1.34877     0.62307     1.00383
O      0.64571     0.76290     1.65253
H      0.28747    -0.11967     1.82512
H      2.98110     0.59184    -1.07382
O      2.13360     0.31059    -0.73181
H      1.43125     0.74025    -1.28127
H     -0.61756    -2.54462     2.09752
O     -0.37866    -1.82569     1.51403
H      0.22026    -2.18333     0.82033
