 27
-688.4302366848353
H      1.53850    -1.25399    -1.61390
O      1.64750    -0.85295    -0.73637
H      0.98400    -1.36258    -0.22323
H     -0.10478    -2.81240    -1.66700
O     -0.01720    -2.24401    -2.43934
H     -0.67197    -1.55189    -2.26926
H      1.16056     1.59819     1.40250
O      1.19881     0.65644     1.62816
H      1.68623     0.22236     0.91290
H      1.06100     3.89251     0.33072
O      0.57095     3.07250     0.39012
H      0.62355     2.63222    -0.48850
H     -0.70991     0.71705     1.25156
O     -1.47288     1.17852     0.87416
H     -1.15198     2.08520     0.77583
H     -1.24732    -1.60407     0.00515
O     -0.50627    -2.08365     0.39585
H     -0.53643    -1.91866     1.35365
H     -0.99260    -0.70749     3.39222
O     -0.28404    -1.22714     3.00853
H      0.41642    -0.59111     2.78656
H      1.13421     0.73565    -1.38069
O      0.67288     1.49991    -1.78057
H     -0.10217     1.12975    -2.21247
H     -1.70619     0.36562    -0.62215
O     -1.83462    -0.25659    -1.37183
H     -2.76237    -0.22858    -1.61045
