 27
-688.4421351894429
H      0.89207    -1.21637    -2.13562
O      1.77133    -0.82385    -2.26187
H      2.37079    -1.38745    -1.77135
H     -1.37462    -1.41723    -1.33467
O     -0.65424    -2.02240    -1.65277
H     -1.07516    -2.71288    -2.16328
H      0.54132     1.42440     1.89525
O     -0.39168     1.65972     2.01562
H     -0.68653     1.96354     1.14272
H      0.01133     1.95517    -1.00004
O     -0.93718     2.06488    -0.72076
H     -1.26651     2.84009    -1.17584
H     -2.16181    -0.86784     2.94682
O     -1.64970    -0.67084     2.16391
H     -1.24290     0.22535     2.28235
H      2.80208     0.23558     1.80769
O      2.03489     0.42700     1.27132
H      1.57874    -0.42917     1.09516
H      0.27343    -2.04167    -0.00649
O      0.58307    -1.80832     0.87983
H     -0.21949    -1.59700     1.38278
H      1.94581     1.43258    -0.32658
O      1.65152     1.70923    -1.20734
H      1.77074     0.91363    -1.75719
H     -1.98460     0.52314    -0.61651
O     -2.37247    -0.36185    -0.51451
H     -2.30402    -0.56047     0.43175
