 27
-688.4240811035867
H      0.28139    -5.06007     0.71672
O      0.95829    -4.46806     0.38315
H      1.60604    -4.41584     1.08864
H     -0.19100    -1.14041    -1.91843
O     -0.43216    -0.55330    -2.66743
H      0.04858    -0.85425    -3.43937
H      1.77010     2.37871     1.12381
O      2.37795     1.61554     1.00557
H      3.19707     1.84293     1.44711
H     -2.10996     0.61567     0.40632
O     -1.51822     1.32161     0.72749
H     -0.96238     1.52937    -0.04623
H     -0.25042     0.23443     1.69430
O      0.52870    -0.34838     1.73901
H      1.29567     0.23252     1.61507
H      0.31714     3.39545     0.01000
O      0.40028     3.45405     0.97010
H     -0.38632     2.98852     1.28529
H      0.33626    -2.77112    -0.19873
O     -0.00013    -1.88118    -0.36402
H      0.25771    -1.32609     0.41247
H      1.16984     1.36092    -0.84412
O      0.37328     1.70323    -1.26773
H      0.06931     1.00610    -1.87203
H     -1.88382    -1.45929    -0.38954
O     -2.59594    -0.84219    -0.61171
H     -2.38392    -0.57982    -1.51293
