  9
-229.4587792698334
H      1.52259    -1.73447     0.45455
O      1.18795    -1.12646    -0.20472
H      0.22075    -1.22664    -0.19258
H     -2.12931    -0.50831     0.78311
O     -1.52623    -0.45169     0.04166
H     -1.11209     0.42715     0.10129
H      0.99224     0.76209     0.00334
O      0.43089     1.55139     0.09367
H      0.62085     2.08672    -0.67768
