 21
-535.4288819926151
H     -0.87015    -0.52774     3.09165
O     -1.63506    -1.11529     2.90883
H     -2.41719    -0.57113     3.00768
H      0.77254     0.91862     2.33943
O      0.50807     0.53106     3.20302
H      0.58000     1.24562     3.83613
H      0.66041    -0.29397    -1.70089
O      0.13113     0.10623    -0.99314
H     -0.26039    -0.63342    -0.49090
H     -0.87297     1.10514    -2.44458
O     -0.92836     1.27688    -3.39773
H     -0.81938     2.22380    -3.49445
H      0.87773    -1.43358    -4.00200
O      1.08505    -0.62547    -3.53144
H      0.40164     0.01757    -3.79084
H      0.87631     1.17829     0.15205
O      1.27537     1.69707     0.88491
H      2.21673     1.71714     0.70826
H     -0.33616    -2.77835     0.64684
O     -0.86737    -2.00118     0.46948
H     -1.21037    -1.71948     1.34541
