 27
-688.4286601398653
H     -1.98041    -1.73746     2.83497
O     -1.54704    -0.96390     2.47670
H     -1.98303    -0.74933     1.63034
H     -0.51078    -1.58434    -1.93770
O     -0.84364    -2.07192    -1.16265
H     -1.57751    -1.53156    -0.84195
H      3.74542    -0.66365    -0.76181
O      3.10829    -0.05639    -0.38598
H      2.41980    -0.60486     0.02719
H     -1.65028     0.63080    -0.02813
O     -2.38920    -0.01949     0.02182
H     -3.18492     0.43890    -0.24242
H      2.23027     1.21869    -1.37397
O      1.53287     1.69682    -1.85277
H      0.92674     1.98550    -1.15759
H     -0.98697     0.66837     3.07889
O     -0.68006     1.58938     3.08367
H     -0.01721     1.65324     3.77186
H     -0.30106     0.12001    -3.80090
O      0.07131    -0.24669    -3.00006
H      0.62934     0.46483    -2.61054
H      0.33493    -1.69426     0.02266
O      0.86853    -1.23683     0.71897
H      0.34722    -1.29614     1.52685
H     -0.32791     1.74819     1.28737
O     -0.17955     1.45009     0.37074
H      0.41260     0.68098     0.42464
