 27
-688.4382815843462
H      2.70179    -2.78471    -1.31556
O      2.23536    -2.66307    -0.48830
H      1.27708    -2.58372    -0.69482
H     -0.78445    -1.74348    -0.07726
O     -0.41180    -2.18740    -0.85187
H     -0.63547    -1.60630    -1.59328
H      0.94751    -1.01772     1.42900
O      1.77018    -0.58820     1.16221
H      2.21306    -1.28415     0.64372
H      0.27497     2.28484    -0.31102
O     -0.31326     2.84115     0.25824
H     -0.14954     3.75712     0.03602
H     -2.15183     0.29073     0.31545
O     -2.32372     0.95237    -0.36808
H     -1.84594     1.74372    -0.07882
H     -1.61140    -1.32052     2.19119
O     -1.16664    -0.79009     1.52747
H     -0.76524    -0.01205     1.99643
H     -0.01742     1.99453     1.85227
O      0.17969     1.28172     2.48006
H      1.05137     0.95103     2.21824
H      1.42585     0.46143    -0.29494
O      1.13703     1.02433    -1.03339
H      0.63045     0.47740    -1.64920
H     -1.55810    -0.04855    -3.32295
O     -1.08004    -0.08978    -2.49525
H     -1.63603     0.34790    -1.80650
