 27
-688.430505138472
H      0.34902     1.37709     1.54700
O      1.02896     0.70923     1.70842
H      1.85509     1.05956     1.33511
H     -1.19380    -2.50650    -1.09325
O     -1.13182    -1.82375    -1.80022
H     -1.14804    -2.28360    -2.64016
H     -1.38780    -0.82019     1.46948
O     -0.77355    -1.37151     1.99167
H     -0.02659    -0.78157     2.17220
H     -0.20064     2.59802    -0.34842
O     -0.71653     2.56934     0.47992
H     -1.03346     3.45060     0.67524
H      0.84274     1.09585    -1.56709
O      0.70848     2.04596    -1.78651
H      0.42974     2.09072    -2.70155
H      0.37684    -1.01693    -1.24116
O      1.10109    -0.46775    -0.89399
H      0.98467    -0.41682     0.06976
H     -1.76132    -4.02709     0.69996
O     -1.08012    -3.46649     0.32778
H     -0.87653    -2.78925     1.01595
H      2.90931     0.66332    -0.50031
O      3.06104     1.47099     0.00483
H      2.69715     2.15548    -0.56166
H     -1.72087     1.05830     0.20108
O     -2.10653     0.17272     0.16504
H     -1.84839    -0.21347    -0.67890
