 27
-688.4256304540747
H      1.36827    -3.63672    -0.27957
O      1.62799    -4.56628    -0.21268
H      1.73986    -4.73066     0.72458
H     -0.06505    -1.53711    -1.93763
O     -0.69589    -1.09061    -2.53840
H     -0.64461    -1.54309    -3.38196
H     -0.05109     1.38982     2.42568
O      0.33443     0.53212     2.17579
H     -0.41759     0.01168     1.86712
H     -0.89787     2.06052    -0.88636
O     -1.65043     2.26631    -0.26968
H     -2.35427     2.62446    -0.81028
H      1.49412     0.68865     0.93424
O      2.04791     0.62646     0.11630
H      2.92429     0.94738     0.32946
H     -1.30824     2.81781     1.45683
O     -0.99880     2.91352     2.37390
H     -1.74557     3.19970     2.89979
H      0.07996    -1.50684     0.11320
O      0.82766    -1.79498    -0.43355
H      1.49932    -1.10285    -0.33570
H      1.00582     1.17308    -1.30866
O      0.27636     1.44264    -1.88987
H     -0.06423     0.62375    -2.28447
H     -1.72072     0.46983     0.23482
O     -1.59332    -0.49112     0.30220
H     -1.78377    -0.81462    -0.58553
