 27
-688.428251818393
H      2.98813    -1.11479     1.64546
O      2.13170    -0.73078     1.46782
H      2.27671     0.17273     1.13539
H     -1.61148    -2.53324    -1.04736
O     -1.38499    -2.06401    -1.87763
H     -2.04973    -1.37867    -1.98326
H     -0.77438    -0.16466     1.80954
O     -0.59159    -1.10360     1.93124
H      0.36907    -1.14292     2.01108
H      0.41122     1.75004     1.11615
O     -0.48786     1.66790     1.47842
H     -0.71715     2.50607     1.87860
H      0.42010     3.83846    -2.18758
O      0.40423     3.35557    -1.35978
H     -0.26651     2.64438    -1.44728
H      0.19554    -1.40052    -1.49545
O      0.89604    -0.81718    -1.14491
H      1.14207    -1.17370    -0.28099
H     -1.46257    -3.96528     0.94412
O     -1.78701    -3.14129     0.58130
H     -1.39073    -2.41854     1.11447
H      1.75765     0.82377    -0.70815
O      1.94762     1.52962    -0.06336
H      1.63255     2.33989    -0.50077
H     -0.54379     0.43202    -1.31856
O     -1.19968     1.14181    -1.22009
H     -1.32628     1.23086    -0.26587
