 27
-688.4358829942846
H      1.12579    -0.89240    -1.68063
O      1.78394    -0.18377    -1.67453
H      2.05226    -0.10494    -0.74799
H     -1.14341    -1.19651    -1.08053
O     -0.45242    -1.86329    -1.30777
H     -0.87489    -2.53217    -1.84467
H      0.54920     0.74741     1.31010
O     -0.37205     1.01645     1.45842
H     -0.57336     1.68952     0.78806
H     -0.37134     2.42188    -1.47719
O     -1.08804     2.48080    -0.80310
H     -1.41756     3.37891    -0.81402
H     -2.22013    -1.12775     2.81431
O     -1.26639    -1.11741     2.90385
H     -0.97761    -0.23315     2.61824
H      2.90428    -0.09913     1.70149
O      2.15484    -0.17369     1.11313
H      1.73825    -1.06004     1.27121
H      0.23745    -2.30780     0.37043
O      0.62178    -2.33027     1.26002
H     -0.09536    -2.10396     1.87600
H      0.86953     2.13859    -3.54287
O      0.87877     2.16249    -2.58670
H      1.26682     1.30028    -2.29329
H     -2.05035     0.84233    -0.79968
O     -2.19950    -0.03618    -0.42142
H     -1.79875     0.04878     0.45567
