 27
-688.431375251648
H      0.66472    -2.93402     2.20049
O      0.52761    -1.98696     2.17778
H     -0.29868    -1.81634     1.68742
H     -0.62124    -1.29697    -2.32497
O     -0.20479    -1.66449    -1.52692
H     -0.83713    -1.52496    -0.81014
H      2.34630     2.39250    -0.69709
O      1.54640     1.88100    -0.58122
H      1.80951     0.94532    -0.38703
H     -1.25671     0.04052     0.91175
O     -1.58852    -0.88666     0.84037
H     -2.53988    -0.86002     0.93352
H     -0.07069     1.76401    -1.57641
O     -1.03125     1.69680    -1.67025
H     -1.34560     1.73402    -0.76187
H      0.74846    -0.47193     3.16314
O      0.70200     0.44794     3.47003
H      0.40931     0.42299     4.38067
H     -1.03785     0.03401    -4.36170
O     -1.46309    -0.23758    -3.54825
H     -1.40933     0.53029    -2.94420
H      1.26649    -1.09354    -0.70263
O      1.88733    -0.70670    -0.05086
H      1.63128    -1.07206     0.80483
H     -0.13146     1.30765     2.10710
O     -0.51099     1.54146     1.23955
H      0.23785     1.88127     0.72360
