  9
-229.45877004575908
H      1.50860    -1.66909     0.62778
O      1.24046    -1.10091    -0.09541
H      0.27544    -1.20514    -0.16076
H     -1.11452     0.39873     0.13118
O     -1.48785    -0.47473    -0.07731
H     -2.07617    -0.33710    -0.81996
H      0.75280     2.22326    -0.26558
O      0.41770     1.54602     0.32235
H      0.99594     0.77315     0.19724
