 30
-764.9316820729408
H     -2.47754     2.37958     1.19560
O     -1.79461     1.81833     0.82529
H     -2.21953     0.94197     0.65613
H     -0.80783     2.21650    -0.66176
O     -0.13884     2.20377    -1.36762
H     -0.12098     1.28205    -1.67188
H     -0.94425    -1.83409    -1.93805
O     -1.62152    -2.53480    -1.89069
H     -1.38350    -3.20060    -2.53630
H      1.23704    -0.64355    -1.46373
O      0.27057    -0.60370    -1.41735
H      0.09599    -0.69227    -0.46153
H      1.68385    -1.08773     0.89139
O      0.81316    -1.07219     1.31335
H      0.76455    -0.20798     1.77208
H     -0.14129     1.75870     1.73590
O      0.73574     1.53607     2.08551
H      1.37101     1.94590     1.48541
H      2.70975     3.12186    -0.36255
O      2.23061     2.30919    -0.20751
H      1.37008     2.37231    -0.70761
H      3.81737    -0.53328    -0.52728
O      2.88368    -0.34017    -0.47695
H      2.78319     0.62228    -0.34356
H     -2.52984    -1.25955     0.71832
O     -3.03454    -0.50216     0.33620
H     -3.22645    -0.78278    -0.56229
O     -1.48150    -2.61431     0.90911
H     -1.44868    -2.86039    -0.02669
H     -0.60397    -2.27735     1.14791
