 18
-458.9385530472638
H     -0.67149     1.50278    -0.95076
O      0.30214     1.60088    -1.02509
H      0.54154     1.10833    -1.81363
H      0.51695     0.44021     0.70481
O      1.11362    -0.05681     1.27912
H      1.95538     0.39297     1.11968
H      0.64555    -1.72304     0.99011
O      0.18894    -2.56349     0.77433
H      0.16374    -3.06443     1.58925
H      3.05959     2.68880     0.62146
O      2.83837     1.85849     0.19798
H      2.00791     2.01826    -0.28031
H     -2.20332    -2.41960    -1.25305
O     -2.02878    -1.75994    -0.58165
H     -1.23955    -2.06911    -0.08744
H     -2.82535     1.18693     0.02423
O     -2.29779     0.94006    -0.73572
H     -2.23542    -0.03861    -0.71345
