 27
-688.4421450750045
H      1.78457    -2.99737    -0.94536
O      1.42467    -2.17913    -0.60573
H      0.46512    -2.15580    -0.86096
H     -1.53136    -1.41304    -0.50720
O     -1.09410    -1.76096    -1.30202
H     -1.04409    -1.00969    -1.91240
H      2.77407    -0.49912     1.60236
O      2.05507    -1.07838     1.85767
H      1.80378    -1.54369     1.04304
H      1.21818     3.02712     0.75750
O      0.69682     2.22698     0.72834
H      1.11827     1.62564     0.07032
H     -2.14058     1.06553     0.08219
O     -1.85789     1.85080    -0.41252
H     -1.08704     2.18619     0.07112
H     -2.81103    -0.88970     1.56521
O     -2.07941    -0.54608     1.05230
H     -1.37231    -0.29294     1.70473
H      0.10482     1.14842     2.16311
O     -0.15235     0.35007     2.64832
H      0.62504    -0.23277     2.57252
H      1.75825    -0.36252    -1.00271
O      1.62601     0.57798    -1.18643
H      0.89095     0.61227    -1.81925
H     -1.09558     1.02281    -3.43312
O     -0.82217     0.71167    -2.57156
H     -1.29541     1.25070    -1.88738
