 18
-458.9350594750593
H      2.72194    -2.14829    -1.27297
O      1.80226    -1.99144    -1.06095
H      1.79060    -1.44994    -0.25624
H     -1.36293    -2.60110     1.61210
O     -1.35371    -1.64762     1.52608
H     -1.48694    -1.47531     0.58246
H     -0.41379    -1.26726    -1.82873
O     -0.79398    -0.66502    -1.18522
H     -0.05422    -0.51155    -0.57289
H      1.25084     3.07346     0.68836
O      0.59407     2.41899     0.92978
H     -0.07321     2.41923     0.21242
H     -2.18165     2.30376    -0.85579
O     -1.26587     2.15330    -1.09365
H     -1.20290     1.20535    -1.29660
H      0.33097    -0.65548     1.51676
O      1.03190    -0.27382     0.96754
H      0.96464     0.69461     1.05931
