 27
-688.4280222822654
H      3.22771    -0.31740     1.84424
O      2.36461    -0.30081     1.43144
H      2.38165     0.43262     0.77080
H     -1.47998    -2.14689    -0.79106
O     -1.51330    -1.72059    -1.68035
H     -1.66905    -2.41386    -2.32175
H     -0.56034     0.05443     2.20389
O     -0.17996    -0.81145     2.44419
H      0.76858    -0.70434     2.27618
H     -0.45249     2.09167     0.90387
O     -1.11013     1.52748     1.32567
H     -1.65545     1.24579     0.58022
H     -0.08326     3.68759    -1.38120
O      0.01646     2.85004    -0.92981
H     -0.66407     2.24682    -1.27548
H      0.35055    -1.28518    -1.50553
O      1.25624    -1.06250    -1.26066
H      1.34255    -1.29113    -0.32675
H     -1.41052    -3.38437     1.34466
O     -1.15163    -2.64909     0.79103
H     -0.79800    -1.95418     1.40956
H      2.08810     0.60372    -1.16285
O      2.36270     1.38159    -0.64862
H      1.62755     2.00295    -0.73066
H     -2.87870     1.10268    -1.64377
O     -1.97299     0.96848    -1.36172
H     -1.76353     0.02636    -1.50937
