 27
-688.4400650278752
H      0.64293    -1.97688    -1.69174
O      1.45090    -2.34274    -1.29122
H      2.17185    -1.85142    -1.68850
H     -1.38185    -0.74956    -1.75074
O     -0.65662    -0.99216    -2.38489
H     -1.06856    -1.15786    -3.23191
H      0.67271     1.44107     1.73492
O     -0.25303     1.58862     1.98196
H     -0.65373     2.01996     1.21297
H     -0.33908     2.05066    -1.01232
O     -1.15699     2.35918    -0.54778
H     -1.40215     3.20562    -0.91809
H     -1.83043    -1.11551     2.69771
O     -1.34187    -0.85970     1.91499
H     -0.98286     0.04718     2.08335
H      3.08156     0.72758     1.23906
O      2.17867     0.56607     0.96934
H      1.95510    -0.37254     1.20879
H      0.35000    -1.75523     1.59120
O      1.29344    -1.88917     1.41325
H      1.34379    -2.23043     0.50198
H      1.47318     0.89736    -0.72879
O      1.00257     1.16306    -1.53523
H      0.63089     0.36438    -1.93635
H     -2.20254     0.78544    -0.53428
O     -2.43403    -0.15385    -0.59458
H     -2.20291    -0.52043     0.27353
