 27
-688.4321586364762
H      1.61861    -1.15860    -3.55055
O      1.65730    -0.75785    -2.68153
H      1.58778    -1.47429    -2.02581
H      0.29839    -2.04238    -0.28436
O      1.25274    -2.25956    -0.46684
H      1.41438    -3.11517    -0.06993
H     -0.01018    -0.00716     2.03447
O     -0.56344    -0.60532     2.57355
H     -1.17515    -0.03161     3.03956
H      0.35504     1.26256    -0.04983
O      0.65779     1.26575     0.89068
H      1.59313     0.99581     0.82760
H      2.92636     0.19290    -0.93576
O      2.94571    -0.01665     0.00282
H      2.48306    -0.86773     0.04152
H     -0.81632     2.11052     1.47785
O     -1.76990     2.31016     1.55266
H     -1.84977     3.26281     1.49634
H     -1.77099    -1.02808    -0.14491
O     -1.26162    -1.78852     0.17180
H     -1.13292    -1.60957     1.12066
H      0.38388     0.41230    -2.08469
O     -0.14156     1.10405    -1.65387
H     -1.04135     0.77386    -1.53714
H     -2.38704     1.21353     0.32029
O     -2.58748     0.58465    -0.40224
H     -3.49275     0.72707    -0.67463
