 27
-688.4354223050598
H      1.88212    -1.37270    -2.80993
O      1.55302    -1.00922    -1.98852
H      0.69686    -1.46472    -1.77680
H     -0.50905    -2.40299    -0.24430
O     -0.72618    -2.02446    -1.11016
H     -1.35975    -1.30591    -0.95936
H      0.36274     0.67843     0.56044
O      0.37786     0.31389     1.45948
H      0.06656    -0.59904     1.41375
H      0.06467     2.87593    -0.34496
O     -0.31916     3.53476     0.26062
H      0.41504     3.94510     0.71862
H      2.16015    -0.53104     1.08826
O      2.56533    -1.30018     0.66019
H      2.43484    -1.14954    -0.28818
H     -1.61204     2.56422     1.08811
O     -2.07397     1.77638     1.43063
H     -1.36006     1.27516     1.85313
H      0.47976    -3.54321     1.82135
O      0.40251    -2.72408     1.33172
H      1.31095    -2.39046     1.14796
H      0.95542     0.66899    -1.57330
O      0.33605     1.32227    -1.21474
H     -0.55272     1.01336    -1.44903
H     -2.28411     0.80764     0.06658
O     -2.25234     0.30207    -0.78737
H     -3.07135     0.48244    -1.24998
