  9
-229.4587795638278
H      1.53186    -1.36072    -0.78195
O      1.19508    -0.92591     0.00241
H      0.23599    -1.08831    -0.00399
H     -2.18942    -0.46004     0.65761
O     -1.56236    -0.44392    -0.06569
H     -1.23101     0.46936    -0.10958
H      0.85433     0.95556     0.00062
O      0.23838     1.70875    -0.02361
H      0.50063     2.28482     0.69480
