 18
-458.94508012718603
H      2.00216    -0.92190    -0.03783
O      2.54003    -0.44845    -0.70228
H      3.45710    -0.58171    -0.46093
H     -0.73960     1.35672     2.59996
O     -0.53877     0.85500     1.81054
H     -1.38284     0.52102     1.43197
H     -0.20707    -0.91477    -2.05374
O     -0.85739    -0.27980    -1.74753
H     -0.33120     0.50568    -1.46722
H      0.44061     1.54912     0.27083
O      0.71488     1.61594    -0.65243
H      1.53382     1.09753    -0.71107
H      0.44539    -0.60305     1.51268
O      0.82442    -1.43477     1.18229
H      0.06617    -1.98304     0.96906
H     -3.35742     0.03859     0.15011
O     -2.50774    -0.32159     0.40668
H     -1.98770    -0.40497    -0.42286
