 21
-535.4366422687975
H     -1.43936    -1.49786     1.38839
O     -1.40432    -2.39681     1.00594
H     -1.81110    -2.34309     0.14058
H     -0.50395     0.77658     1.61993
O     -0.66546    -0.02732     2.13191
H      0.20962    -0.40915     2.25774
H      0.37025    -2.45825     1.30134
O      1.26071    -2.10127     1.49403
H      1.85022    -2.84659     1.60893
H     -0.74292     1.26812    -2.29313
O     -1.24260     2.00008    -1.86928
H     -2.16944     1.77970    -1.96991
H      0.87773    -0.11826    -3.45605
O      0.25124    -0.10892    -2.73182
H      0.78201    -0.21018    -1.90950
H      0.26298     3.01263     0.75227
O      0.02629     2.11904     0.50523
H     -0.48457     2.16531    -0.33531
H      1.27896     0.71938     0.05202
O      1.63556    -0.06620    -0.38432
H      1.57175    -0.77862     0.26926
