  9
-229.4587747129202
H      1.72765    -1.09265    -0.63910
O      1.30344    -0.66346     0.10495
H      0.36746    -0.92321     0.05288
H     -1.23929     0.46723    -0.21659
O     -1.47736    -0.47301    -0.14618
H     -2.14810    -0.52294     0.53515
H      0.25508     2.49676     0.57716
O      0.09118     1.85411    -0.11335
H      0.77731     1.17141    -0.01108
