 27
-688.4258208889473
H      0.98995    -1.23828    -2.83505
O      1.39627    -0.41500    -3.18690
H      2.31420    -0.61912    -3.36893
H     -0.70217    -2.23955    -1.65651
O      0.18529    -2.50693    -1.92155
H      0.61168    -2.68862    -1.07297
H     -0.99323     0.90625     0.83802
O     -1.68556     1.36833     1.32003
H     -1.81340     2.16271     0.77752
H     -0.66538     2.53300    -0.99332
O     -1.28272     3.23280    -0.71179
H     -1.82326     3.43586    -1.47662
H      1.14069    -1.62389     1.10147
O      0.72382    -2.49000     0.86564
H      0.97184    -3.12757     1.53353
H     -0.52379     1.49507     2.81502
O      0.31488     1.36964     3.29273
H      0.55717     2.22986     3.63743
H      1.28739     0.51336     2.02505
O      1.63405    -0.00019     1.27463
H      1.39620     0.48546     0.47095
H     -0.43258     0.11933    -0.99933
O      0.19892     0.85378    -1.07333
H      0.72639     0.63679    -1.86688
H     -0.96700    -1.76985     0.47113
O     -1.55076    -1.21867    -0.07722
H     -2.12288    -0.73432     0.52648
