  9
-229.45120887728407
H      1.64093    -2.14603    -0.43925
O      0.80043    -2.49292    -0.13100
H      0.98228    -2.81601     0.75406
H     -1.31195    -0.10993    -0.96385
O     -0.96713    -0.24128    -0.07833
H     -0.43088    -1.04728    -0.12774
H     -0.18838     2.82102     0.46324
O      0.29398     2.22219    -0.10810
H     -0.10537     1.34747     0.02343
