 27
-688.4368818770079
H     -0.82748    -3.93198     0.28234
O     -0.22661    -3.21447     0.47933
H     -0.17514    -2.67311    -0.34129
H      0.63756    -1.15487    -1.87214
O     -0.18696    -1.63144    -1.70784
H     -0.86409    -0.94447    -1.60652
H      1.12250     1.54113     1.26286
O      0.55614     2.33262     1.21484
H      0.89508     2.97519     1.83602
H     -2.10253     0.63041    -0.21506
O     -2.03159     0.48923    -1.19758
H     -2.92122     0.50946    -1.54852
H      0.25715     2.43384    -0.64340
O      0.19984     2.12636    -1.56038
H     -0.64543     1.65109    -1.61274
H     -0.43333    -1.96956     1.76280
O     -0.40246    -1.13617     2.26370
H      0.45121    -0.75656     2.02034
H      2.62949     0.25890    -2.44556
O      1.96204     0.16077    -1.76851
H      1.38664     0.97174    -1.79965
H      2.78222    -0.35958     1.29990
O      1.93095    -0.04699     0.99333
H      1.90702    -0.18179     0.02761
H     -1.55056     0.16090     1.82920
O     -1.92791     0.96681     1.41567
H     -1.21104     1.61593     1.45164
