 27
-688.4310952219819
H      0.31012    -0.69138    -1.77108
O      1.08170    -0.14907    -1.55041
H      0.81517     0.76679    -1.73396
H     -1.06994    -2.86384     0.92668
O     -1.39490    -3.43278     0.18581
H     -2.17024    -3.88053     0.52473
H     -1.16098     1.13541     0.46559
O     -1.72526     0.35036     0.44143
H     -1.59931    -0.07946    -0.41523
H      0.81312     2.49858     1.00490
O     -0.12362     2.69245     0.77338
H     -0.49121     3.20648     1.49289
H      2.34730     1.07566     1.31352
O      2.41820     2.05005     1.37344
H      3.21613     2.29376     0.90473
H      1.58086    -0.44193     0.02380
O      1.91729    -0.58716     0.94712
H      2.61485    -1.23888     0.87107
H      0.30225    -1.30999     1.88474
O     -0.61204    -1.60246     2.00506
H     -1.13685    -0.87270     1.62063
H     -0.09416     2.66588    -0.99549
O      0.06839     2.38494    -1.91204
H     -0.73293     2.57551    -2.39947
H     -1.99484    -1.67491    -2.42624
O     -1.37513    -1.50814    -1.71656
H     -1.40961    -2.27556    -1.10213
