 27
-688.4257480150854
H      1.15404    -1.03616    -1.04273
O      0.88801    -0.36099    -1.69873
H      0.06727    -0.70856    -2.09245
H     -1.90919    -2.18052    -2.57505
O     -1.68357    -1.32910    -2.19995
H     -1.87850    -1.39128    -1.25115
H      0.06099     0.66473     2.28977
O      0.16796     0.32468     3.19784
H      0.19189     1.08246     3.78249
H     -0.38534     2.87988    -1.71188
O     -1.12293     3.05884    -1.09257
H     -1.91786     2.86253    -1.59099
H      1.25787    -1.08352     3.17046
O      1.79835    -1.86283     2.94317
H      2.69963    -1.64955     3.18583
H     -0.62210     1.90058     0.14390
O     -0.22591     1.11003     0.56844
H      0.36299     0.72814    -0.10266
H     -0.00984    -2.08989     0.49793
O      0.94501    -2.11651     0.36374
H      1.32465    -2.07854     1.25943
H      1.81471     2.50783    -2.78025
O      0.92004     2.18749    -2.66417
H      0.99102     1.25205    -2.38479
H     -1.38917    -0.25824     0.63832
O     -1.81521    -1.13574     0.57003
H     -2.21141    -1.32724     1.42037
