 24
-611.9409365728868
H     -1.20168     2.64537     1.34014
O     -0.72508     1.93841     0.90615
H     -0.21245     1.45820     1.58392
H     -1.77785    -0.15815    -1.38897
O     -1.86093    -0.25669    -0.42919
H     -1.61033     0.60003    -0.04866
H     -0.31009    -1.30178    -0.78243
O      0.45285    -1.90385    -0.84020
H      0.64749    -1.92976    -1.77900
H     -0.66983     0.28288    -3.70147
O     -0.55572    -0.01047    -2.79844
H      0.03544     0.64710    -2.35302
H      1.78247    -0.75770    -0.03205
O      2.18387     0.05178     0.31779
H      1.83337     0.14041     1.21321
H      1.54719     1.22892    -0.86646
O      0.88791     1.73947    -1.37768
H      0.28812     2.07081    -0.69395
H     -1.54709    -1.38803     1.05640
O     -0.92068    -1.83463     1.64839
H     -0.33317    -2.29856     1.03877
H      0.76961     0.13228     3.51850
O      0.51823     0.20419     2.59839
H     -0.02433    -0.59504     2.37091
