 21
-535.4321401488038
H     -0.54191     2.19207    -0.08718
O     -1.32245     2.02808    -0.66588
H     -1.30465     2.69985    -1.34837
H      0.91264     2.55683     1.74978
O      0.86884     2.46554     0.79767
H      1.55721     1.80640     0.55798
H      2.28752    -2.26310     1.82256
O      2.40097    -1.94048     0.92836
H      1.63904    -2.29651     0.41925
H     -3.72030     0.49423     0.99966
O     -3.53141     0.48267     0.06106
H     -2.89218     1.19791    -0.09336
H     -2.22456    -0.68664    -0.72017
O     -1.33726    -0.78379    -1.09702
H     -1.04174     0.13350    -1.14325
H      3.30849     0.59412    -0.57699
O      2.77795     0.64726     0.21827
H      2.63429    -0.27885     0.50855
H     -0.34251    -2.10392    -0.63509
O      0.24991    -2.85924    -0.41356
H      0.25787    -3.42499    -1.18543
