 27
-688.4346900752573
H     -0.82362    -0.67145    -2.28067
O     -0.03590    -1.20125    -2.08729
H      0.68131    -0.57052    -1.91374
H      2.28556     0.66154    -0.40456
O      1.84826     0.71762    -1.29487
H      2.43651     1.21413    -1.86451
H      0.39742    -1.54627     1.45209
O      0.79201    -0.98608     2.14381
H      0.68407    -1.43678     2.98164
H     -3.26541     0.30523    -2.52107
O     -2.44567     0.22819    -2.03391
H     -2.64754    -0.09390    -1.12520
H      2.40437    -0.09248     1.58819
O      2.80270     0.69421     1.18478
H      2.21448     1.40334     1.50692
H     -0.04153     2.04275     1.17593
O      0.47391     1.86259     1.97380
H      0.34019     0.92280     2.15471
H      0.19336     1.49939    -0.89113
O     -0.67864     1.74400    -0.53915
H     -1.32038     1.51782    -1.22581
H     -0.26624    -2.10905    -0.69223
O     -0.45310    -2.49346     0.20472
H     -0.52273    -3.44084     0.09657
H     -1.67002     0.36633     0.58706
O     -2.29678    -0.37235     0.55224
H     -1.78348    -1.18449     0.65844
