 27
-688.4272416168853
H      1.40136    -0.78760    -1.39625
O      2.07640    -0.05864    -1.46091
H      2.87267    -0.44773    -1.81944
H     -0.64884    -1.52377    -0.91253
O      0.22886    -1.92484    -1.08909
H      0.42873    -2.41625    -0.28166
H     -0.76035     1.46796    -0.54623
O     -0.89919     1.58418     0.40489
H     -0.73129     2.53273     0.51731
H      0.23620     3.58656    -1.05208
O     -0.05443     4.11518    -0.29136
H     -0.54881     4.85396    -0.64578
H     -0.90359    -2.64205     1.88382
O     -1.87514    -2.71933     1.84998
H     -2.07701    -3.65516     1.81370
H      0.54316     0.74343     1.14360
O      1.36515     0.25083     1.31503
H      1.86326     0.32085     0.48980
H      1.04704    -1.36200     1.64556
O      0.86793    -2.33104     1.75643
H      1.39067    -2.61350     2.50748
H      0.06070     1.76553    -2.92155
O      0.45477     2.02758    -2.08882
H      1.12958     1.35521    -1.87035
H     -2.24509    -1.54934     0.52189
O     -2.13264    -0.90955    -0.20039
H     -2.00384    -0.06127     0.24237
