 27
-688.432529914654
H      2.04933    -1.24262    -0.66335
O      1.98363    -0.90960    -1.57080
H      1.47711    -1.58675    -2.05303
H     -0.20054    -2.79194    -1.53832
O      0.19362    -2.80596    -2.44034
H      0.20313    -3.71974    -2.72404
H      0.19190     1.36513     2.04859
O      1.04611     1.06917     1.70673
H      1.03211     1.33450     0.77267
H     -0.31984     2.68832    -0.71520
O     -0.78136     3.43653    -0.27947
H     -1.06151     4.03676    -0.96972
H      1.43125    -0.56417     1.50146
O      1.67070    -1.47840     1.21707
H      2.36621    -1.79012     1.79529
H     -1.36404     2.75906     1.18601
O     -1.58597     2.13533     1.91328
H     -1.93074     2.65079     2.64149
H     -1.19922    -1.78392     0.24283
O     -0.63711    -2.55772     0.11301
H      0.17687    -2.35386     0.59537
H      0.95923     0.45419    -1.37160
O      0.26507     1.07669    -1.04829
H     -0.49270     0.51098    -0.83261
H     -1.89249     0.59783     1.03522
O     -1.99065    -0.09213     0.35820
H     -2.85633     0.02426    -0.03634
