  9
-229.4587791595855
H      0.21276    -1.19483    -0.02817
O      1.17889    -1.09391    -0.08077
H      1.43818    -1.54975    -0.88246
H     -1.16013     0.44830    -0.07682
O     -1.54465    -0.44131     0.00333
H     -2.11694    -0.40929     0.77021
H      0.73006     2.17163     0.59100
O      0.38610     1.59387    -0.09052
H      0.95659     0.80536    -0.08555
