 27
-688.4337262881155
H      1.33105    -1.45697    -1.95495
O      1.62253    -0.80459    -2.61770
H      1.98234    -1.29659    -3.35628
H     -0.47183    -1.57281    -0.88946
O      0.33263    -1.94606    -0.48544
H      0.00895    -2.18117     0.39860
H      0.00435     1.06286     2.63436
O     -0.90176     0.83692     2.36419
H     -1.05788     1.36043     1.56286
H     -0.67769     1.62667    -1.22200
O     -0.64797     1.77141    -0.25455
H      0.27201     1.59437    -0.00198
H     -1.62428    -2.21311     2.49681
O     -1.28560    -1.73082     1.74468
H     -1.11086    -0.80157     2.04513
H      2.02952     1.13162     1.72378
O      1.78663     1.43011     2.61601
H      2.22169     2.27160     2.75255
H      1.37189    -0.42446     0.14124
O      1.84996     0.41709     0.05998
H      2.10631     0.46108    -0.86678
H      0.07001     0.21953    -2.86401
O     -0.74688     0.72416    -2.75277
H     -1.41313     0.08626    -2.47030
H     -1.88828     0.24114    -0.41309
O     -2.09878    -0.66479    -0.69359
H     -2.17919    -1.16797     0.13055
