  9
-229.4587826875183
H      0.24516    -1.14223     0.04178
O      1.19339    -0.99869    -0.12132
H      1.40713    -1.54825    -0.87630
H     -2.05629    -0.37950     0.95619
O     -1.54392    -0.48247     0.15413
H     -1.22857     0.40827    -0.07572
H      0.84783     0.86750    -0.35449
O      0.23137     1.61906    -0.40380
H      0.60205     2.30019     0.15763
