  9
-229.45876934752238
H      1.26352    -0.08008     0.10363
O      1.24880    -1.05323     0.10885
H      1.87729    -1.32933    -0.55858
H     -1.94510    -0.85016    -0.80545
O     -1.49592    -0.48694    -0.04209
H     -0.67379    -0.99802     0.05043
H      0.29539     2.13349     0.87017
O      0.36047     1.60475     0.07405
H     -0.48909     1.13587     0.00575
