 27
-688.4364652501937
H      0.85607    -1.23060    -1.52430
O      1.56649    -0.57665    -1.58368
H      1.96333    -0.56258    -0.70167
H     -1.31846    -1.73328    -0.94181
O     -0.57581    -2.37193    -1.08470
H     -0.89884    -3.06361    -1.66022
H      0.59825     0.69346     0.83292
O     -0.28280     1.10045     0.80175
H     -0.16959     2.00133     0.43810
H      0.52214     2.93918    -1.31264
O      0.20907     3.41735    -0.51128
H      0.87415     4.07835    -0.31565
H     -2.19852    -0.20774     3.14153
O     -1.80505    -0.49988     2.32068
H     -1.27576     0.24022     1.95655
H      2.77334    -0.36693     1.76524
O      2.04491    -0.45481     1.15339
H      1.48492    -1.21774     1.44762
H     -0.01497    -2.53856     0.67757
O      0.21098    -2.32769     1.59547
H     -0.56989    -1.88363     1.95696
H      0.53708     1.73483    -3.34606
O      1.06788     1.87782    -2.56214
H      1.27045     0.98210    -2.20499
H     -2.51101    -0.65133     0.52217
O     -2.29700    -0.47612    -0.40462
H     -1.65242     0.24698    -0.34698
