 27
-688.421678948843
H      0.78240    -2.08014    -1.31343
O      0.54443    -2.76864    -0.66709
H     -0.40210    -2.93280    -0.82542
H      1.48782     0.12461    -1.42347
O      0.75163    -0.27920    -1.91042
H     -0.06090    -0.01550    -1.45765
H     -2.10655     2.87533     1.77032
O     -1.88357     1.94545     1.83402
H     -0.91583     1.91281     1.97798
H     -2.69897    -2.65417    -1.86477
O     -2.20081    -2.57221    -1.05076
H     -2.22341    -1.63190    -0.81144
H      2.84542     1.15367     0.37617
O      2.93155     0.44583    -0.26913
H      2.95594    -0.35298     0.26417
H      0.64107    -1.88722     0.74574
O      0.53324    -1.21872     1.47296
H      0.27779    -1.69876     2.26311
H      0.75933     1.99347     0.74905
O      0.84808     1.63237     1.64410
H      0.89684     0.66894     1.55388
H      0.48885     2.30734    -1.71631
O      0.04465     2.58158    -0.90951
H     -0.79227     2.10629    -0.92493
H     -1.93690     0.67123     0.52044
O     -1.54376     0.01036    -0.07374
H     -0.90877    -0.46129     0.49297
