 27
-688.4369756244722
H      3.31572    -1.87116     1.13877
O      2.55555    -1.31174     0.98635
H      1.77885    -1.89703     0.80289
H      2.23056    -0.20137    -0.49431
O      1.74612     0.30823    -1.15833
H      1.04376    -0.27390    -1.48406
H      0.38760     0.08147     2.59493
O      1.22237     0.56437     2.60172
H      1.85052    -0.04663     2.19104
H     -0.95036     2.43920    -0.53191
O     -1.70521     2.45766    -1.15930
H     -1.41279     2.97281    -1.91078
H     -1.31698    -0.87538    -1.70659
O     -0.46443    -1.27007    -1.97028
H     -0.52922    -1.50087    -2.89649
H     -0.31570    -1.84228     0.86994
O      0.24023    -2.49054     0.40398
H      0.04516    -2.33005    -0.53076
H     -1.91195    -0.29881     0.58531
O     -1.18372    -0.20762     1.21277
H     -0.72996     0.61607     0.95887
H      0.80913     1.81538     1.32392
O      0.42282     2.03125     0.45246
H      0.99320     1.58017    -0.21164
H     -2.45090     0.92615    -1.19045
O     -2.72848    -0.02024    -1.14368
H     -3.68449    -0.04393    -1.18254
