  9
-229.4482243931325
H      0.17172    -2.58230    -0.28346
O      1.12898    -2.50118    -0.26040
H      1.39282    -2.93517     0.55277
H     -0.10249     0.77330     0.07720
O     -0.35585    -0.15049    -0.01104
H      0.46294    -0.64561    -0.10824
H     -0.51463     3.10545    -0.59071
O     -0.45301     2.67479     0.26443
H     -1.35840     2.44836     0.49152
