  9
-229.4512049083597
H      1.18072    -2.56004     0.72108
O      1.44723    -1.72933     0.32548
H      0.63003    -1.22308     0.19176
H     -0.69190    -0.54814    -1.34034
O     -0.83201    -0.34534    -0.41319
H     -0.82944     0.62245    -0.35725
H     -1.05632     2.76667     0.76588
O     -0.66119     2.49403    -0.06490
H      0.27400     2.68561     0.03772
