 27
-688.4291987376063
H      0.40909    -3.88636    -0.67400
O     -0.12405    -3.11495    -0.48465
H      0.38628    -2.32741    -0.74548
H     -0.29629     2.18549    -0.94872
O      0.51703     2.69723    -1.05627
H      0.85519     2.83335    -0.16130
H      1.11623     1.57155     1.64841
O      1.73558     2.29879     1.43586
H      1.85769     2.81707     2.23077
H     -1.96605     0.02080    -0.76405
O     -1.68508     0.97177    -0.74653
H     -2.49793     1.47631    -0.82956
H      0.24815    -0.09596    -1.52101
O      0.86509    -0.64325    -1.02136
H      1.70057    -0.12240    -0.99187
H      0.32284    -0.22970     0.81723
O     -0.08200     0.32108     1.50981
H     -0.79846     0.78835     1.05297
H     -0.86219    -2.62915     1.22255
O     -1.47516    -2.14495     1.79324
H     -1.00497    -1.33874     2.03877
H      2.18575     1.79639    -1.36235
O      2.82038     1.18356    -0.95401
H      2.88411     1.52659    -0.05290
H     -2.45570    -1.72547     0.31741
O     -2.49802    -1.55603    -0.64553
H     -1.89268    -2.22541    -0.99173
