 27
-688.4300614274237
H      1.38472     0.67764     1.29396
O      2.08018     1.04141     0.70981
H      2.91156     0.98783     1.18190
H      1.14412    -1.96055    -0.90070
O      0.81401    -2.69086    -0.35272
H     -0.11771    -2.76511    -0.59531
H     -1.83981    -1.23782    -0.37596
O     -1.99288    -2.18573    -0.18826
H     -2.81996    -2.44508    -0.59197
H      1.40943     2.36745    -1.90345
O      1.14607     2.85578    -1.11819
H      1.47174     2.31177    -0.38000
H      0.41482    -0.03762    -1.43156
O      1.32335    -0.30654    -1.64730
H      1.86569     0.09419    -0.95498
H     -0.17363    -0.75687     2.27517
O     -0.04815     0.23023     2.17726
H     -0.41518     0.65250     2.95351
H      0.30778    -2.61929     1.45075
O     -0.40217    -2.37996     2.07786
H     -1.18629    -2.44697     1.50982
H     -1.86009     3.42119    -1.98206
O     -1.56650     2.98624    -1.18114
H     -0.59042     3.08989    -1.14691
H     -0.88455     0.51367     0.49198
O     -1.20876     0.38481    -0.41338
H     -1.51232     1.25373    -0.73239
