 27
-688.4390008783952
H      1.72580    -2.29020    -0.17186
O      2.00830    -1.65755     0.51116
H      1.24333    -1.55923     1.09766
H      0.07257    -2.48952    -1.60040
O      0.79909    -3.12981    -1.49591
H      0.39247    -3.99532    -1.45708
H     -0.10761     0.18947     1.76399
O     -0.43095    -0.69877     1.54317
H     -1.39324    -0.62449     1.45014
H     -1.03189     2.19870    -0.57895
O     -1.52334     2.32772     0.25981
H     -0.81969     2.38604     0.92256
H      3.29436     0.98402    -0.61411
O      2.39596     0.84189    -0.31590
H      2.31678    -0.12098    -0.07489
H      1.46910     1.61532     0.96784
O      0.83116     1.82315     1.67852
H      1.32168     2.16140     2.42683
H     -1.91440    -0.84781    -0.96401
O     -0.99908    -1.04625    -1.20119
H     -0.54394    -0.93911    -0.34746
H     -0.28457     0.67113    -1.93298
O      0.07977     1.55715    -1.79399
H      0.96519     1.40627    -1.43503
H     -2.48192     0.95846     0.42528
O     -2.89139     0.05843     0.52264
H     -3.80027     0.18678     0.78806
