 27
-688.4346275279487
H      1.44540     0.98357     1.40341
O      2.09729     0.82142     0.71487
H      2.24325    -0.13264     0.77238
H     -0.14225    -2.01042    -1.24783
O     -0.20573    -2.60062    -0.48229
H     -1.04660    -2.36349    -0.06134
H     -3.37922    -1.71357     0.59223
O     -2.46536    -1.47629     0.74703
H     -2.33891    -0.57329     0.39824
H      1.82374     1.45928    -0.93227
O      1.47155     1.73911    -1.79768
H      1.06553     0.94162    -2.16099
H     -0.86361     0.02309    -1.54063
O     -0.37374    -0.42482    -2.25905
H     -0.90658    -0.35696    -3.05189
H      0.48924    -0.82614     2.14144
O     -0.20128    -0.15242     2.26592
H     -1.02078    -0.64912     2.34949
H      1.02766    -2.24802     0.59504
O      1.65249    -1.90326     1.28527
H      2.18418    -2.64214     1.57997
H     -0.19479     4.05836    -0.42544
O     -0.52318     3.29150    -0.89609
H      0.26302     2.85830    -1.31109
H     -0.81561     0.68545     0.77118
O     -1.39898     0.87952     0.01339
H     -1.22727     1.80353    -0.25773
