  9
-229.4586052251486
H      0.21192    -1.09810    -0.12627
O      1.17686    -0.97579    -0.15168
H      1.56419    -1.84503    -0.25463
H     -1.17767     0.49447     0.13855
O     -1.54597    -0.40609     0.11379
H     -2.00292    -0.51635     0.94852
H      0.49567     2.21101    -0.66991
O      0.30899     1.69530     0.11481
H      0.92918     0.95032     0.07737
