 21
-535.4267522971816
H      0.08905    -0.89499    -1.49889
O     -0.29116    -1.79370    -1.49167
H     -0.01907    -2.21507    -2.30660
H      0.55961     0.70093     0.00468
O      0.34799     0.78656    -0.93966
H      0.88822     1.50113    -1.29505
H      1.15702    -1.37552     1.24827
O      1.39811    -2.20989     0.83639
H      0.78516    -2.28826     0.09916
H     -2.68612    -0.54571     2.37771
O     -2.19704     0.17507     1.97831
H     -2.38334     0.13001     1.01005
H      0.90130     0.75917     2.54118
O      0.48743     0.35639     1.77828
H     -0.47840     0.29259     1.96448
H      2.97293     2.73405    -1.69782
O      2.03149     2.88973    -1.79019
H      1.88154     3.75902    -1.41528
H     -1.60656     0.62965    -0.94427
O     -2.34391     0.04353    -0.71917
H     -1.99932    -0.82207    -0.97794
