  9
-229.4512014539255
H      0.65471    -2.99810     0.65665
O      1.10556    -2.16774     0.49944
H      0.42819    -1.55214     0.17658
H     -0.12911    -0.44915    -1.55354
O     -0.63116    -0.40723    -0.73707
H     -0.62605     0.52667    -0.47740
H     -1.21037     2.39729     0.94655
O     -0.55020     2.27488     0.26099
H      0.29037     2.35740     0.71751
