 27
-688.437053018498
H      2.94962    -1.33285    -1.22509
O      2.15601    -0.80497    -1.15494
H      1.38035    -1.42715    -1.17826
H     -0.48686    -2.28424    -0.22049
O     -0.16016    -2.06416    -1.11012
H     -0.74850    -1.38016    -1.46226
H      1.10720     1.39634     0.93026
O      1.09169     0.44561     1.12381
H      1.55898     0.00181     0.39693
H      1.01725     3.78690    -0.05066
O      0.58202     2.93665    -0.02335
H      0.71361     2.50821    -0.90538
H     -0.85006     0.63655     0.90256
O     -1.57264     1.20733     0.59948
H     -1.13793     2.06393     0.47853
H     -0.76868    -2.06569     2.13523
O     -1.07203    -2.66745     1.42566
H     -1.91847    -3.01860     1.70086
H     -0.77744    -0.16006     3.46796
O     -0.14576    -0.82697     3.19355
H      0.45646    -0.37525     2.57094
H      1.47037     0.71184    -1.99329
O      0.85507     1.42901    -2.20874
H      0.00056     0.99111    -2.32979
H     -1.79021     0.57483    -0.97633
O     -1.65155     0.18814    -1.87227
H     -2.49463     0.18675    -2.32371
