  9
-229.45877853484737
H      1.36181    -1.65170    -0.83838
O      1.15059    -1.12340    -0.06853
H      0.19487    -1.23277     0.07430
H     -2.28228    -0.46002    -0.42207
O     -1.56248    -0.46569     0.20924
H     -1.16247     0.42063     0.16729
H      0.68200     2.02025     0.83430
O      0.36825     1.56138     0.05408
H      0.93591     0.77581    -0.02876
