 27
-688.4283669906993
H      1.53563    -1.26954    -1.04679
O      1.40576    -0.72377    -1.83127
H      0.60372    -1.06914    -2.24656
H     -1.55052    -1.38986    -1.68442
O     -1.16964    -1.48328    -2.57203
H     -1.48604    -2.31244    -2.92838
H      0.51488     1.38129     1.82556
O     -0.44199     1.46584     1.68166
H     -0.48738     1.80261     0.77681
H     -0.65463     1.82744    -1.76158
O     -1.52701     1.48096    -2.01653
H     -1.36338     0.90593    -2.76922
H     -1.32624    -1.30493     3.51267
O     -0.48307    -0.92648     3.25993
H     -0.66596    -0.00644     3.01693
H      1.92410    -0.06139     1.03895
O      2.26017     0.81285     1.31227
H      2.98457     0.66780     1.92020
H     -0.03023    -1.35033     0.31275
O      0.78187    -1.52732     0.81723
H      0.49144    -1.51469     1.74480
H      1.58793     1.87631    -0.21336
O      0.97043     1.82605    -0.95305
H      1.17727     0.96130    -1.36185
H     -1.46923     0.06067     0.76955
O     -1.69444    -0.39819    -0.05371
H     -1.78955     0.31501    -0.71987
