 27
-688.4273432654492
H      3.04113    -0.83406    -1.78445
O      2.18412    -0.71901    -1.37540
H      1.76506     0.06573    -1.82274
H      2.04452    -0.18326     0.47231
O      1.72519     0.26398     1.27029
H      0.90261    -0.19424     1.51381
H     -2.09443    -1.44327     4.45067
O     -2.22952    -1.98789     3.67288
H     -3.15629    -1.87531     3.45071
H     -1.78488     1.13936    -1.68115
O     -1.65589     1.15649    -2.65666
H     -2.15784     0.42188    -3.00936
H      0.13417     1.37493    -2.65747
O      1.06018     1.48316    -2.37128
H      0.99935     2.04036    -1.58077
H      1.06673    -2.04140    -0.84298
O      0.46405    -2.69640    -0.44572
H      0.97266    -3.49608    -0.30748
H     -1.14439    -1.50245     2.18931
O     -0.68335    -1.08907     1.44827
H     -0.41765    -1.79299     0.82870
H      1.25530     1.80512     0.72880
O      0.81476     2.55071     0.24939
H      1.08297     3.37074     0.66167
H     -0.91113     1.83742     0.17178
O     -1.64079     1.21119     0.05641
H     -1.39008     0.41817     0.55434
