 18
-458.9422546572556
H      1.01254     0.34698     2.78144
O      0.72008     0.06166     1.91726
H      0.07744     0.74250     1.58704
H     -0.71933    -1.18784     1.43026
O     -1.49174    -1.44155     0.90400
H     -1.82575    -2.25645     1.27798
H      0.63660    -1.11582    -1.31856
O     -0.27950    -1.18195    -1.62031
H     -0.78839    -1.39353    -0.82683
H     -0.28669     0.58855    -1.88000
O      0.00797     1.50329    -1.69068
H      0.95291     1.39365    -1.54103
H      3.00730    -0.66751    -0.34780
O      2.11729    -0.32760    -0.43404
H      1.75516    -0.21568     0.46101
H     -1.84067     0.89734     0.62545
O     -1.13791     1.54341     0.75070
H     -0.76019     1.67800    -0.14839
