 27
-688.433663263066
H      2.44326    -0.23641    -1.22271
O      2.44598     0.38801    -1.96552
H      2.16703    -0.13041    -2.72262
H      1.28623    -2.29550    -1.19035
O      0.64705    -2.48867    -1.89744
H      0.41287    -3.41382    -1.82015
H     -3.18702    -1.33132     1.48719
O     -2.45835    -0.85077     1.09750
H     -2.60914     0.10785     1.26499
H     -0.29284     1.07725    -1.06987
O      0.31717     1.82690    -0.90945
H      1.14725     1.54289    -1.33086
H     -0.65848    -0.92934     1.50270
O      0.25645    -0.71952     1.74212
H      0.25730     0.23089     1.93365
H      0.35352     2.07292     0.70646
O      0.21507     2.09390     1.69749
H      0.81981     2.74497     2.04888
H      1.45489    -1.16095     0.71846
O      2.18601    -1.47105     0.11961
H      2.90574    -1.75929     0.68108
H     -0.56141    -1.17131    -1.63271
O     -1.13595    -0.43850    -1.36158
H     -1.68478    -0.77641    -0.64376
H     -1.57552     1.99968     1.67470
O     -2.49514     1.81124     1.41497
H     -2.60909     2.23574     0.56179
