  9
-229.4587884204091
H      1.52201    -1.67962     0.59207
O      1.16007    -1.09908    -0.07765
H      0.19368    -1.20375    -0.02903
H     -1.17971     0.43032     0.06514
O     -1.56769    -0.46137     0.04147
H     -2.13299    -0.47192    -0.73177
H      0.69213     2.08689     0.75709
O      0.34329     1.58420     0.02089
H      0.92599     0.81128    -0.07212
