 27
-688.4370500418047
H      2.86373    -1.49135    -1.21720
O      2.09958    -0.91881    -1.17612
H      1.29005    -1.49462    -1.21686
H     -0.63228    -2.24365    -0.27310
O     -0.29457    -2.02288    -1.15832
H     -0.83328    -1.28799    -1.48722
H      1.18126     1.31990     0.91716
O      1.08066     0.37171     1.09575
H      1.51049    -0.09996     0.36277
H      1.24449     3.74141    -0.04644
O      0.77275     2.91090    -0.02475
H      0.88361     2.48191    -0.90947
H     -0.85807     0.72826     0.89473
O     -1.51299     1.37119     0.58285
H     -0.98971     2.17763     0.46483
H     -0.91379    -2.02417     2.08972
O     -1.23569    -2.60595     1.37218
H     -2.09770    -2.92588     1.63695
H     -0.81211    -0.11460     3.45335
O     -0.23400    -0.82015     3.15891
H      0.39241    -0.40338     2.53526
H      1.52266     0.64637    -2.00995
O      0.95372     1.40250    -2.21908
H      0.07180     1.02076    -2.33442
H     -1.75440     0.74398    -0.98603
O     -1.63212     0.33758    -1.87630
H     -2.46733     0.39015    -2.33908
