 27
-688.4268354268725
H     -1.45310    -2.66251     2.18083
O     -1.39815    -1.73506     1.95340
H     -1.92575    -1.60131     1.14340
H     -0.09172    -0.78700    -2.27249
O     -0.23155    -1.65983    -1.85017
H     -1.15649    -1.65552    -1.57928
H      4.11155    -0.46711     0.24218
O      3.46721     0.21335     0.43892
H      2.60958    -0.24567     0.55254
H     -2.13996     0.01998    -0.26775
O     -2.60916    -0.84061    -0.32916
H     -3.49262    -0.66434    -0.65037
H      2.94886     1.26178    -0.84662
O      2.55107     1.83066    -1.53857
H      2.66601     2.73026    -1.23150
H     -1.46402    -0.08766     2.76531
O     -1.52118     0.87456     2.87991
H     -2.25537     1.03948     3.47019
H     -0.47700     1.38938    -1.75544
O      0.08925     0.97629    -2.41684
H      0.98583     1.28685    -2.19582
H      0.67832    -1.25646    -0.42477
O      0.98539    -0.89162     0.43703
H      0.38083    -1.22574     1.11020
H     -1.26546     1.39024     1.16190
O     -1.02230     1.29822     0.22256
H     -0.12491     0.92880     0.24671
