 27
-688.4307490803253
H      1.04409    -1.84842    -2.22741
O      1.89546    -1.40396    -2.01680
H      2.60178    -1.93659    -2.38071
H     -1.04076    -1.64272    -1.65978
O     -0.63187    -2.23616    -2.32606
H     -1.08890    -3.07655    -2.27201
H      0.26420     1.50903     2.53926
O     -0.66144     1.69038     2.30548
H     -0.64155     1.96230     1.37701
H     -0.04030     1.87176    -1.08844
O     -0.75660     2.17456    -0.48821
H     -1.07589     3.01342    -0.82230
H     -1.80710    -1.15689     2.89389
O     -2.12824    -0.54970     2.22690
H     -1.62076     0.29109     2.35961
H      2.45525     0.35628     3.26927
O      1.91755     0.78606     2.60534
H      1.73163     0.12039     1.91107
H      0.15103    -0.86898     0.37198
O      1.07504    -0.95079     0.65561
H      1.58317    -1.12702    -0.14544
H      1.39318     0.32151    -2.08093
O      0.94262     1.14998    -2.31732
H      0.42550     0.93312    -3.09694
H     -1.54500     0.43060    -0.50966
O     -1.57276    -0.53382    -0.41710
H     -1.94557    -0.69253     0.47324
