 27
-688.4291500080344
H      2.87686    -0.51062     2.41665
O      2.32970    -0.62638     1.64027
H      2.22274     0.25469     1.23232
H     -0.66644    -1.20872    -0.06109
O     -0.91240    -1.31054    -1.00857
H     -1.43058    -2.12271    -0.97552
H     -0.74221    -0.26018     1.70769
O     -0.42779    -1.18724     1.63596
H      0.53409    -1.16228     1.76991
H      0.03241     1.60994     1.00027
O     -0.88171     1.45122     1.28803
H     -1.41788     1.58236     0.49431
H      0.30806     3.54343    -2.36249
O      0.16712     3.22748    -1.46921
H     -0.56189     2.58441    -1.50662
H      0.96389    -1.18044    -1.46111
O      1.87909    -0.88922    -1.33917
H      2.18514    -1.34388    -0.54815
H     -2.62856    -3.77937     1.13962
O     -1.99027    -3.28888     0.62192
H     -1.50818    -2.72124     1.24556
H      1.78299     0.73551    -0.64867
O      1.69401     1.46215     0.00226
H      1.38047     2.23402    -0.49996
H     -2.68835     1.23415    -1.70533
O     -1.78236     1.23489    -1.39473
H     -1.47860     0.30198    -1.36721
