 27
-688.4317076858157
H      1.70112     0.03667    -1.76984
O      2.05683    -0.64023    -1.18018
H      1.50058    -1.42140    -1.30775
H     -0.84827    -2.71511    -0.07898
O      0.01398    -2.44214    -0.43556
H      0.52347    -2.22879     0.35691
H      2.59236     1.87805    -0.04203
O      1.83193     2.46324    -0.06589
H      1.34572     2.21293    -0.87029
H      0.68691     2.46188     1.22673
O      0.06508     2.30912     1.96972
H     -0.11303     3.16211     2.36464
H      1.15787     0.33709     1.84814
O      1.13334    -0.50755     1.38682
H      1.59008    -0.38382     0.53188
H     -1.30979     1.02566     1.63955
O     -1.56639     0.13837     1.34732
H     -0.71653    -0.33733     1.39013
H     -3.27923    -2.58285     0.32920
O     -2.44652    -2.49753     0.79523
H     -2.39324    -1.56847     1.07676
H     -0.28709     0.88166    -2.00236
O      0.50545     1.42264    -2.25611
H      0.34907     1.75897    -3.13854
H     -1.70281     0.06917    -0.54964
O     -1.42320    -0.20713    -1.43929
H     -0.93849    -1.04034    -1.30171
