 27
-688.4370776772784
H      0.40411    -2.25707     1.35856
O      0.83059    -2.77400     0.66145
H      0.18848    -2.74593    -0.06142
H     -1.00128    -1.10956     0.07823
O     -1.16187    -1.42794    -0.83224
H     -1.99593    -1.00491    -1.09793
H      3.65854    -1.61252    -0.33447
O      2.81160    -1.19447    -0.18225
H      2.18961    -1.88371     0.15442
H      0.56906     1.54861    -1.07153
O      0.38705     2.36623    -0.53194
H      0.67367     3.11014    -1.06070
H     -2.17957     2.59552     1.36713
O     -1.93953     1.87846     0.78206
H     -1.10666     2.12905     0.33555
H     -1.16445     0.24842     1.64638
O     -0.49843    -0.45062     1.66913
H      0.36627     0.01129     1.71935
H      1.55306     1.59386     0.84504
O      1.83954     0.88247     1.43213
H      2.38997     0.29287     0.89582
H      1.72354    -0.29679    -1.36226
O      0.95769     0.12230    -1.78479
H      0.21145    -0.49003    -1.64522
H     -3.32122     0.93797    -1.92666
O     -3.25333     0.37258    -1.15728
H     -2.89657     0.93034    -0.44740
