 24
-611.9456379843344
H      2.10409    -0.07454     0.25475
O      1.92288     0.39772     1.07787
H      1.37098    -0.19208     1.60877
H     -1.33123    -1.28927    -0.87983
O     -1.90126    -0.53186    -1.12619
H     -1.35397     0.01111    -1.71087
H      0.81547    -1.85797    -0.62099
O      0.03208    -2.23071    -0.19472
H      0.09311    -1.98570     0.73781
H      2.61718    -0.89252    -2.16733
O      1.94086    -0.67834    -1.52516
H      1.33705    -0.01794    -1.91506
H      0.83334     1.75735     0.65532
O      0.06741     2.25203     0.29759
H     -0.69678     1.91332     0.78488
H      0.06645     1.71395    -1.29118
O      0.10074     1.22857    -2.15918
H      0.06822     1.88299    -2.85510
H     -2.93544     0.80721     1.56043
O     -2.04586     0.59685     1.28092
H     -2.10506     0.19905     0.37079
H     -0.24087    -1.33506     3.24087
O     -0.12826    -1.02106     2.34401
H     -0.86755    -0.42172     2.12727
