  9
-229.45862764222161
H      1.22635    -0.05699    -0.04706
O      1.21349    -1.02902    -0.09257
H      1.71832    -1.32541     0.66571
H     -0.68972    -0.98741    -0.04241
O     -1.52995    -0.51034     0.07226
H     -2.23063    -1.14564    -0.07551
H     -0.52888     1.18043     0.18691
O      0.32732     1.62632     0.09194
H      0.22977     2.18477    -0.67963
