 18
-458.9445653429917
H      0.45078    -1.89525     0.40934
O     -0.38593    -1.92732    -0.08825
H     -0.98505    -1.34172     0.39569
H      0.49205     1.67962     0.52312
O      0.74302     1.25766     1.35324
H     -0.10521     0.94535     1.68971
H      0.52802    -0.87167    -2.94978
O      0.37978    -0.38026    -2.14280
H      0.11617    -1.03818    -1.45091
H     -2.83247     0.23842     1.13358
O     -1.89084     0.27891     0.97077
H     -1.74812     0.88008     0.21934
H      2.77293    -1.05288     0.51459
O      1.98417    -1.13849     1.05108
H      1.63803    -0.22783     1.16798
H     -0.33819     1.07143    -1.56425
O     -0.75817     1.78067    -1.02866
H     -0.91214     2.52885    -1.60260
