  9
-229.45859372261768
H      1.50980    -1.97019     0.09264
O      1.17118    -1.08638    -0.04959
H      0.20484    -1.16488    -0.13029
H     -2.11362    -0.48824     0.69560
O     -1.53830    -0.38972    -0.06383
H     -1.13427     0.49080     0.02898
H      0.70266     2.12435    -0.56098
O      0.41086     1.61214     0.19345
H      0.98832     0.83232     0.20291
