  9
-229.4587786818446
H      1.78877    -1.51206    -0.67685
O      1.16164    -1.31472     0.01895
H      1.21534    -0.35409     0.16034
H     -0.73238    -1.17764    -0.18185
O     -1.54743    -0.64683    -0.20116
H     -2.08651    -0.98362     0.51549
H     -0.49646     0.93274     0.03789
O      0.36138     1.37082     0.17739
H      0.40093     2.08078    -0.46378
