 27
-688.430392575366
H      2.39153    -0.97299    -0.07876
O      2.38620    -0.28842    -0.75925
H      1.78459    -0.61988    -1.43988
H      0.12290    -2.12034    -1.67787
O      0.34769    -1.43400    -2.34478
H      0.42691    -1.87109    -3.19285
H      0.38662     0.74563     1.32221
O     -0.03075     0.00056     1.78905
H     -0.96917     0.06548     1.55971
H      0.22108     1.69588    -0.86177
O      0.87327     1.89920    -0.15832
H      1.60541     1.27110    -0.32237
H      1.06183    -1.28730     1.68015
O      1.68086    -2.01105     1.41563
H      2.24219    -2.20521     2.16560
H     -0.38758     2.91396     0.66735
O     -1.26983     3.20692     0.96839
H     -1.52490     3.91112     0.37038
H      0.59204    -2.87848     0.31142
O     -0.13447    -3.12006    -0.29109
H     -0.93871    -2.94666     0.20026
H     -0.73200     0.06414    -2.02191
O     -1.14199     0.88049    -1.70334
H     -1.77031     0.62390    -1.01971
H     -2.25598     1.74051     0.97649
O     -2.60554     0.82629     0.90882
H     -3.39526     0.79335     1.44941
