 27
-688.4343404424171
H      0.09399    -0.54498     1.43148
O      0.00448     0.37184     1.74508
H     -0.81264     0.69626     1.33588
H     -0.69498    -1.14382    -2.10398
O     -0.89095    -2.11044    -2.09346
H     -0.65289    -2.47147    -2.94611
H     -2.54914    -0.19386     0.35006
O     -2.36359     0.77599     0.33342
H     -3.17564     1.23361     0.54946
H      0.78323     1.94557     1.86402
O      1.25411     2.77295     1.63761
H      1.73732     3.04689     2.41705
H     -1.13015     0.78532    -1.08801
O     -0.43446     0.49599    -1.69578
H      0.39009     0.90202    -1.39087
H      2.07273     0.04574     1.19200
O      2.52841    -0.35528     0.44288
H      2.51449     0.34274    -0.22507
H      0.11496    -2.28232    -0.50791
O      0.41350    -2.06427     0.38925
H      1.28836    -1.64145     0.29365
H      1.66779     2.40195    -0.02625
O      1.83108     1.95824    -0.88327
H      2.14997     2.61489    -1.50226
H     -1.55395    -2.11241     0.68577
O     -2.39679    -1.89931     0.25915
H     -2.22932    -2.12902    -0.66553
