  9
-229.45878514972136
H      0.80003    -0.71970     0.92285
O      0.91677    -1.56876     0.46331
H      0.63827    -2.24250     1.08373
H     -0.09184    -0.90600    -1.01646
O     -0.59362    -0.19480    -1.45087
H     -0.10307     0.01130    -2.24752
H     -0.74711     1.33100     1.54420
O     -0.01625     1.02155     1.00862
H     -0.37883     0.88262     0.11621
