 18
-458.943197938288
H      2.52521     0.15456    -0.11945
O      2.66407    -0.81904    -0.16988
H      3.52760    -0.94456    -0.56403
H     -1.00299    -1.63523     0.30837
O     -1.71625    -1.62785     0.97051
H     -2.30989    -2.34250     0.73859
H     -0.46287     0.34416    -1.13647
O     -0.54827     1.29307    -0.97485
H     -1.27072     1.35893    -0.32618
H      1.13539    -1.34159    -0.71175
O      0.20787    -1.49144    -1.01131
H      0.25236    -1.94672    -1.85178
H      1.05411     1.73895    -0.47162
O      1.98752     1.80788    -0.15962
H      1.97065     2.38186     0.60678
H     -2.38773     1.35687     1.89037
O     -2.44436     1.00292     1.00205
H     -2.25926     0.04562     1.08047
