  9
-229.4587744556751
H      1.54109    -1.73182     0.48017
O      1.17527    -1.11663    -0.15577
H      0.20849    -1.21131    -0.09485
H     -1.13941     0.43242     0.06656
O     -1.54142    -0.45259     0.02585
H     -2.11613    -0.43565    -0.74040
H      0.96707     0.79662    -0.08700
O      0.39078     1.57073     0.03193
H      0.74052     2.04315     0.78756
