  9
-229.4587807765547
H      1.36088    -0.09188     0.36027
O      1.15736    -1.01645     0.58373
H      1.75198    -1.54317     0.04839
H     -0.64658    -0.73373     0.01462
O     -1.33979    -0.16738    -0.36748
H     -2.09020    -0.23736     0.22316
H      0.70805     2.41277     0.13391
O      0.84029     1.60120    -0.35633
H     -0.04896     1.25081    -0.53576
