  9
-229.4502661842405
H      0.97134    -3.19456    -0.92423
O      1.01985    -2.63384    -0.14990
H      0.54689    -1.82209    -0.37736
H     -0.18377     0.88501     0.22138
O      0.15424    -0.01022     0.08321
H      0.74564    -0.19388     0.81786
H     -0.93852     2.92272    -0.72124
O     -1.05330     2.55959     0.15964
H     -1.99966     2.43117     0.25323
