 27
-688.4347635371079
H      2.74960    -2.35245     1.22917
O      2.19141    -1.65513     0.89006
H      1.44170    -2.09333     0.39741
H      2.52187    -0.23563    -0.30465
O      2.28042     0.48354    -0.90343
H      1.56853     0.11728    -1.44732
H      0.89293     0.29576     3.16404
O      0.68194     0.26196     2.23063
H      1.30587    -0.36344     1.81691
H     -0.45115     2.30552    -0.59249
O     -1.18995     2.11865    -1.24440
H     -1.32482     2.92978    -1.73248
H     -0.61512     0.50608    -1.94728
O     -0.11859    -0.28511    -2.21900
H     -0.17688    -0.35762    -3.17229
H     -0.65062    -2.21462     0.25333
O      0.03426    -2.47539    -0.40190
H     -0.06435    -1.84738    -1.13207
H     -2.24725    -0.72971     0.95518
O     -1.61661    -1.30445     1.41795
H     -0.97732    -0.70335     1.82272
H      0.72739     1.88656     1.19280
O      0.86256     2.41678     0.39127
H      1.51736     1.88777    -0.11131
H     -2.51801     1.08034    -0.51528
O     -3.12532     0.42803    -0.13144
H     -3.65005     0.08514    -0.85444
