  9
-229.4587812175463
H      1.12922    -1.26242    -1.23442
O      1.07639    -0.69375    -0.46597
H      0.24964    -0.93407    -0.01184
H     -1.21422     0.48174     0.62771
O     -1.39324    -0.45146     0.83608
H     -1.47512    -0.48742     1.78981
H      0.57969     1.16076    -0.32799
O     -0.07900     1.83777    -0.09668
H     -0.23602     2.33514    -0.89951
