 27
-688.4253015110904
H      1.86682    -3.75482    -0.49319
O      2.30382    -4.59971    -0.66009
H      3.02258    -4.64110    -0.02827
H     -0.14598    -1.74298    -1.66486
O     -0.78373    -1.18367    -2.15088
H     -1.18481    -1.72477    -2.83126
H     -0.37816     1.39473     2.48560
O     -0.12331     0.46839     2.33236
H     -0.84220     0.09326     1.79379
H     -0.80979     2.19533    -1.09319
O     -1.54202     2.55319    -0.52730
H     -2.10871     3.07667    -1.09321
H      1.04882     0.50149     1.17837
O      1.69038     0.43574     0.41679
H      2.54470     0.70462     0.75309
H     -0.30238     3.92335     2.16352
O     -0.82588     3.12433     2.10742
H     -1.08553     3.01867     1.17650
H      0.18004    -2.17244     0.48035
O      0.84728    -2.12246    -0.21247
H      1.31507    -1.27845    -0.06543
H      0.97806     1.06616    -1.19288
O      0.37294     1.33729    -1.90202
H     -0.03528     0.51158    -2.19996
H     -2.02015     0.77699     0.11186
O     -1.86017    -0.16378     0.27163
H     -1.60257    -0.52479    -0.58678
