 21
-535.4299043948904
H     -1.16193    -3.62003    -0.29316
O     -0.59220    -2.93549     0.05767
H     -1.19190    -2.25958     0.44680
H      0.24184     2.55479    -0.34448
O     -0.45899     2.72412    -1.00827
H     -0.01846     2.73420    -1.85831
H      0.83328    -2.28743    -0.70144
O      1.62298    -1.87999    -1.11519
H      1.35510    -1.62301    -1.99788
H     -1.74798     1.60465    -0.72361
O     -2.52336     1.02217    -0.57067
H     -3.27159     1.61464    -0.48925
H      2.36980    -0.81598     0.02335
O      2.73557    -0.23700     0.72674
H      2.75919    -0.78858     1.50940
H      1.91040     1.29139     0.77301
O      1.47199     2.16715     0.83153
H      2.14904     2.77857     1.12196
H     -2.34682    -0.33125     0.52060
O     -2.21576    -1.07162     1.15029
H     -1.85176    -0.67212     1.94154
