 27
-688.4340869457457
H      0.95271     1.78256     2.13556
O      0.98241     0.88740     2.48973
H      0.05864     0.71744     2.71520
H     -0.61945    -2.66243    -1.97153
O     -1.60003    -2.65521    -1.88713
H     -1.88077    -3.57052    -1.89424
H     -1.76308     0.24324     1.35579
O     -1.83301     0.85452     2.12412
H     -2.55633     0.55174     2.67241
H     -1.15886     2.48749     1.71219
O     -0.51058     3.12792     1.37112
H     -0.94912     3.97864     1.33801
H      2.68542     0.71621    -2.27864
O      1.96774     0.19895    -1.91507
H      1.23940     0.81709    -1.67479
H      1.39624    -0.37986     1.28730
O      1.46102    -1.01230     0.54708
H      1.93720    -0.54951    -0.16014
H      1.46010    -1.68782    -2.17332
O      1.11941    -2.51540    -1.80817
H      1.30256    -2.41719    -0.86374
H     -0.74191     0.94395    -0.77356
O     -0.11803     1.65422    -0.99123
H     -0.12896     2.25890    -0.23726
H     -0.40668    -1.03805     0.22791
O     -1.31597    -0.73804     0.03328
H     -1.66625    -1.37510    -0.61720
