 18
-458.9428485994422
H      1.33896    -1.49191     0.37426
O      1.75568    -0.80084    -0.19055
H      2.70463    -0.91671    -0.14299
H      0.15537     2.03862     0.35999
O      0.45759     1.48613     1.09952
H      1.10929     0.89811     0.69883
H     -0.17250    -0.69789    -2.71934
O     -0.29338    -0.24750    -1.88459
H      0.49134    -0.44804    -1.34123
H     -0.55377     1.50208    -1.62705
O     -0.55091     2.41569    -1.28978
H     -1.41705     2.78020    -1.47161
H     -0.50501    -1.77148     1.33521
O      0.21954    -2.43786     1.27155
H     -0.20112    -3.28691     1.13516
H     -0.88883     0.36912     1.32894
O     -1.52498    -0.36706     1.17971
H     -1.78843    -0.26844     0.25996
