 27
-688.431559365641
H      1.02817    -2.23878    -1.15937
O      1.53791    -1.83228    -0.43755
H      0.89087    -1.66142     0.26371
H     -0.57255    -3.29161    -2.85993
O     -0.22264    -2.50753    -2.43747
H     -0.97698    -1.98064    -2.12707
H     -1.75949     0.23181     4.19499
O     -0.99038     0.00097     3.67272
H     -0.51176     0.83859     3.49150
H     -1.63198    -0.87551    -0.28821
O     -2.06190    -0.91589    -1.17201
H     -3.00546    -0.81378    -1.04625
H      2.01096    -0.37592    -1.12701
O      2.11475     0.51709    -1.54625
H      2.88293     0.47490    -2.11174
H      1.25756     2.38764     3.29132
O      0.36452     2.26283     2.96622
H      0.43133     2.25499     1.99073
H      0.33807     0.93589    -2.24665
O     -0.55999     1.28617    -2.16021
H     -1.13129     0.51608    -2.04347
H      1.33246     1.60754    -0.16450
O      0.49191     1.86247     0.24887
H     -0.10950     1.90622    -0.52508
H     -0.20693     0.23410     0.90813
O     -0.57864    -0.65234     1.07115
H     -0.81981    -0.65568     2.01485
