  9
-229.4587792698334
H      0.81178    -1.31845    -1.53164
O      0.95499    -0.70285    -0.81247
H      0.31316    -0.94429    -0.12178
H     -0.96729     0.45724     0.85671
O     -1.02781    -0.46667     1.15514
H     -0.81679    -0.44606     2.08942
H      0.42343     1.13719    -0.62481
O     -0.17244     1.80372    -0.24232
H     -0.59200     2.23658    -0.98602
