  9
-229.45877765286417
H      0.52112    -0.86633    -0.18634
O      1.41617    -0.49129    -0.26055
H      1.96314    -0.99413     0.34331
H     -1.23710     0.30775     0.10578
O     -1.36721    -0.65241     0.01924
H     -1.95086    -0.76262    -0.73237
H      0.13733     2.37500     0.85466
O     -0.10120     1.84172     0.09631
H      0.66656     1.27158    -0.08043
