 18
-458.9399052377573
H      1.77092    -0.50774    -0.36632
O      2.33077     0.27915    -0.28942
H      1.73433     1.00409    -0.49593
H      1.80978     0.25356     1.64733
O      0.96539     0.12978     2.10672
H      0.63960    -0.68626     1.69703
H     -2.78872    -1.68926    -0.46131
O     -1.97577    -1.62114    -0.96283
H     -1.91601    -0.69048    -1.25948
H     -0.46934     2.78515     1.11415
O     -0.14904     2.04381     0.60142
H      0.18604     1.37995     1.25094
H     -0.43122    -1.80533    -0.23449
O      0.45164    -1.85322     0.19194
H      0.72466    -2.77074     0.17386
H     -1.01652     1.35607    -0.78194
O     -1.49122     0.99238    -1.55141
H     -1.08510     1.36999    -2.33123
