 27
-688.4335630844741
H      0.65618    -1.06597    -3.18255
O      0.37092    -0.75494    -2.32381
H      0.54389     0.22888    -2.30300
H      1.13577    -1.27729    -0.66938
O      1.42064    -1.22085     0.25895
H      0.86270    -1.84167     0.74540
H     -1.11672    -1.64976     2.58236
O     -1.33311    -0.87566     3.13077
H     -2.19038    -1.05242     3.51926
H     -0.87596     2.36051     0.15465
O     -0.81797     3.11697    -0.45725
H     -0.65662     3.88979     0.08391
H      0.33497     2.37117    -1.66360
O      1.00382     1.79490    -2.07480
H      1.70071     1.70546    -1.40290
H     -1.18822    -1.16383    -1.44387
O     -1.83547    -1.26096    -0.72394
H     -1.78103    -0.41686    -0.24710
H     -0.93557    -3.71387     1.10661
O     -0.77004    -2.77330     1.16497
H     -1.26196    -2.33443     0.41998
H      2.43545     0.25443     0.21697
O      2.69871     1.17312     0.03273
H      3.64044     1.23201     0.18629
H     -1.03286     0.38965     1.85799
O     -0.74648     0.76920     1.00897
H      0.13300     0.40535     0.84640
