 27
-688.4313975584731
H      2.22382     0.45063    -1.46137
O      2.84440     0.12375    -0.77824
H      3.51293    -0.39547    -1.22811
H     -1.47246    -2.72597    -0.25197
O     -0.75130    -2.62088    -0.89287
H      0.00897    -2.38210    -0.34620
H      2.07724     1.77785     0.34731
O      1.36631     2.42448     0.29581
H      0.96841     2.23863    -0.56666
H      0.23499     2.62586     1.61532
O     -0.49896     2.56570     2.26334
H     -1.00015     3.37708     2.17804
H      1.63134    -1.72690     1.50480
O      1.17855    -1.34644     0.75135
H      1.82496    -0.81591     0.24360
H     -1.05887     0.97979     1.62851
O     -1.20424     0.14610     1.14544
H     -0.35093    -0.31403     1.07852
H     -3.57938    -2.08584     1.01660
O     -2.62875    -2.17614     1.08974
H     -2.27238    -1.27552     1.20979
H     -0.03534     0.68246    -2.03957
O      0.81136     1.20006    -2.19438
H      0.72513     1.59674    -3.06019
H     -1.59821     0.15975    -0.76419
O     -1.39570    -0.09718    -1.68048
H     -1.20469    -1.06008    -1.61816
