 27
-688.438838666985
H      1.60882    -1.72828    -0.57895
O      2.03946    -1.38736     0.22083
H      1.31073    -1.24359     0.84943
H     -0.50632    -2.12376    -1.21630
O      0.25776    -1.94856    -1.82019
H      0.20286    -2.56879    -2.54646
H     -0.84666    -0.02353     1.17668
O     -0.18245    -0.44390     1.74177
H      0.28710     0.32274     2.10307
H     -0.75433     1.52657    -0.68131
O     -1.27041     1.72517     0.12940
H     -0.63204     2.10318     0.75069
H      3.59415     1.31902    -0.41733
O      2.69566     1.15230    -0.13523
H      2.60012     0.17236     0.00209
H      1.68046     1.90674     1.12348
O      0.97705     2.10858     1.76907
H      1.31100     2.75308     2.39082
H     -2.37040    -1.53992    -0.08805
O     -1.66073    -2.19410     0.03180
H     -1.22900    -1.95383     0.86089
H      0.39958    -0.08407    -1.93789
O      0.41567     0.87972    -1.83804
H      1.26983     1.09608    -1.44186
H     -2.71210     0.74819    -0.18070
O     -3.30666    -0.00718    -0.34934
H     -3.84108     0.23656    -1.10419
