 18
-458.94239312861794
H      1.95220     0.23018    -0.19643
O      2.21892     0.71141    -0.99549
H      2.78015     1.42557    -0.69163
H     -1.35230    -0.10823    -1.34923
O     -1.85379    -0.96023    -1.28988
H     -1.98808    -1.24425    -2.19395
H     -1.57259    -2.52240     1.42662
O     -0.84928    -2.27271     0.85257
H     -1.26260    -1.87972     0.05204
H     -0.51389     1.70486    -0.50039
O     -0.48111     1.34403    -1.40156
H      0.46582     1.17908    -1.53584
H      1.79529    -1.03329     1.92403
O      1.18766    -0.60743     1.31920
H      0.46128    -1.25170     1.14479
H     -0.90523     1.74012     1.97993
O     -0.19868     1.79379     1.33659
H      0.32186     0.98216     1.44478
