  9
-229.4587733531961
H      1.44489    -1.60625     1.03284
O      1.04660    -1.36885     0.19527
H      1.18948    -0.41225     0.09445
H     -0.81778    -1.12543    -0.14678
O     -1.57405    -0.54781    -0.34828
H     -1.90846    -0.85147    -1.19305
H     -0.41504     0.97004    -0.24971
O      0.46876     1.35904    -0.12826
H      0.35950     2.06164     0.51284
