  9
-229.4492250765715
H      0.28561    -1.16810    -0.11063
O      1.22560    -1.37453    -0.16317
H      1.55122    -0.77206    -0.83412
H     -2.26389    -0.35073    -0.53700
O     -1.56663    -0.36996     0.12011
H     -2.00716    -0.44063     0.96851
H      1.16135     1.29312     0.53814
O      0.50734     1.70465    -0.02946
H     -0.23890     1.09532     0.00902
