  9
-229.4587837164987
H      0.88939    -0.50297     0.73713
O      0.60545    -1.39618     0.47792
H      0.43248    -1.86299     1.29568
H     -0.99258     0.07283    -2.00923
O     -1.15643     0.13253    -1.06734
H     -0.71144    -0.64039    -0.67897
H      0.26394     1.99263     1.34739
O      0.62425     1.40298     0.68465
H     -0.08351     1.27372     0.02921
