 27
-688.4370184374067
H      3.53164    -1.35327    -0.67675
O      2.66151    -1.12992    -0.34772
H      2.11155    -1.94787    -0.36901
H      0.04366    -2.69892    -0.30255
O      0.90545    -3.16272    -0.38919
H      0.75485    -3.92578    -0.94762
H     -0.14567     0.25587     1.94872
O     -1.08571     0.02576     1.99151
H     -1.56582     0.80959     1.69280
H     -1.03432     2.50891     0.37505
O     -1.97742     2.28532     0.57503
H     -2.42163     3.09378     0.82561
H     -0.06144    -0.49529    -1.17733
O      0.50643     0.15996    -1.62309
H      1.40829    -0.13343    -1.44209
H      2.05360    -0.10202     0.92341
O      1.69071     0.50698     1.59544
H      2.27825     0.48762     2.35148
H     -1.91362    -1.04899    -0.72961
O     -1.28168    -1.56354    -0.19104
H     -1.29374    -1.14611     0.70093
H      1.10467     1.99798     0.66328
O      0.61489     2.47149    -0.02572
H      0.60442     1.84638    -0.77065
H     -2.44443     1.18113    -0.86687
O     -2.37019     0.52277    -1.57322
H     -1.52195     0.71821    -1.98812
