 27
-688.4418115016085
H      1.61316    -1.64589    -0.57218
O      2.17019    -1.49888     0.20843
H      1.56876    -1.59641     0.96262
H     -0.56236    -1.78079    -1.13914
O      0.17561    -1.58631    -1.77761
H      0.05800    -2.18188    -2.51765
H      0.12728    -0.16439     1.96776
O      0.13704    -1.13831     2.13070
H      0.13511    -1.26356     3.07825
H     -0.67162     1.83402    -1.24007
O     -1.36926     2.16829    -0.61681
H     -1.69289     2.99053    -0.98309
H      3.52196     1.41894     0.01216
O      2.61821     1.10832    -0.01404
H      2.63079     0.12389     0.10202
H      1.15783     1.54261     1.07729
O      0.31196     1.48432     1.54849
H     -0.35033     1.82488     0.93086
H     -2.29000    -1.37900     0.17679
O     -1.61012    -2.07217     0.12964
H     -1.05630    -1.92098     0.91045
H      0.53118     0.22994    -2.06074
O      0.66426     1.19102    -2.01129
H      1.42726     1.31050    -1.42568
H     -2.51251     0.92069     0.04575
O     -3.10825     0.22561     0.37094
H     -3.53342     0.56963     1.15543
