 27
-688.4282420430793
H      0.90712     1.37166     1.50664
O      1.35680     0.51554     1.47142
H      2.21197     0.74346     1.06887
H     -1.06553    -2.81740    -0.87729
O     -1.19869    -2.11156    -1.55096
H     -1.56837    -2.51362    -2.33596
H     -1.36049    -0.83206     1.41313
O     -0.68120    -1.35562     1.87477
H      0.10109    -0.78444     1.90378
H     -0.02894     2.81966    -0.06147
O      0.62433     3.09545     0.60541
H      0.32446     3.91207     1.00165
H     -0.16924     1.16310    -1.53577
O     -0.78140     1.92961    -1.43902
H     -1.06721     2.18654    -2.31493
H      0.21584    -0.98169    -1.40389
O      0.81125    -0.23166    -1.23843
H      0.99199    -0.22689    -0.28195
H     -1.14352    -4.37748     1.07010
O     -0.73278    -3.68405     0.55423
H     -0.65277    -2.89359     1.14618
H      2.59795     1.27910    -1.07163
O      2.96080     1.77111    -0.32865
H      2.29784     2.45073    -0.14249
H     -1.90452     0.81493    -0.30872
O     -2.26195    -0.00389     0.05433
H     -2.05822    -0.67605    -0.61257
