 18
-458.9384994300351
H     -0.59805    -0.43992    -1.72730
O      0.34383    -0.64489    -1.68570
H      0.76303     0.13567    -2.07762
H     -1.34557    -1.50150     0.38754
O     -0.57634    -2.06851     0.53985
H     -0.05069    -1.90692    -0.25654
H      0.85359     0.38632     0.09224
O      0.56072     1.11241     0.66124
H      0.55692     0.70324     1.54412
H      0.96472     2.07266    -1.07047
O      1.21770     1.94402    -1.99674
H      2.08455     2.33871    -2.08697
H      1.15652    -1.20272     3.15374
O      0.45883    -0.73341     2.69395
H      0.11552    -1.33945     2.00091
H     -1.28722     0.79487     0.16185
O     -2.01880     0.26509    -0.20005
H     -2.82539     0.61565     0.17916
