 27
-688.4362231090562
H      2.38446    -1.06972    -0.09087
O      2.53263    -0.37657    -0.74764
H      1.98065    -0.61834    -1.50179
H     -0.09922    -1.50723    -1.72530
O      0.38503    -1.08690    -2.47568
H      0.28659    -1.65369    -3.24016
H      0.55793     0.82356     1.57381
O      0.23937     0.15529     2.21002
H     -0.69484     0.02395     2.00508
H      0.46946     1.74356    -0.63637
O      1.08786     1.77833     0.11127
H      1.79270     1.14205    -0.13167
H      1.15378    -1.23585     1.84169
O      1.52613    -2.00980     1.35398
H      1.97538    -2.56942     1.98613
H     -0.70247     2.73850     0.84871
O     -1.63026     2.64971     0.59862
H     -1.59444     2.58733    -0.36553
H     -1.35369    -1.44342     0.24328
O     -0.76755    -2.03773    -0.24307
H     -0.00379    -2.20201     0.33169
H     -0.46082     0.55606    -2.18277
O     -1.04022     1.14359    -1.67363
H     -1.63236     0.53196    -1.22051
H     -2.18211     1.03490     0.89558
O     -2.32101     0.05971     0.90410
H     -3.15487    -0.10268     1.35010
