  9
-229.45858956994678
H      1.38549    -1.37148    -1.15349
O      1.08934    -1.12824    -0.27563
H      0.12973    -1.29069    -0.27174
H     -1.35649     0.23352     0.06194
O     -1.67021    -0.67364    -0.08012
H     -2.17172    -0.88750     0.70685
H      0.76364     0.68785     0.21752
O      0.14853     1.42606     0.37004
H      0.66721     2.22977     0.33907
