 27
-688.4312812836879
H     -0.58588    -2.88502    -1.82146
O     -0.55662    -1.97663    -1.51870
H     -1.47631    -1.62112    -1.59557
H      2.22380    -0.44207    -1.20656
O      1.53292    -0.09646    -1.79999
H      0.85002    -0.77860    -1.85138
H     -0.58204     2.35480     0.45901
O     -1.35220     2.41964     1.04858
H     -1.01748     2.75608     1.88050
H     -3.29955    -0.18966    -2.03371
O     -3.02845    -0.92776    -1.48618
H     -2.99421    -0.57438    -0.55890
H      4.19343    -0.63336     0.29224
O      3.25564    -0.81213     0.21986
H      2.81020    -0.25843     0.90055
H     -0.12013    -1.55376     0.20542
O     -0.08555    -1.31173     1.14951
H      0.14820    -2.10577     1.63274
H      1.53781     1.48601     1.12715
O      1.72352     0.78251     1.76424
H      0.96651     0.17976     1.69485
H      1.35569     2.85918    -1.03629
O      0.90867     2.16449    -0.55472
H      1.06042     1.32995    -1.07273
H     -2.31596     0.88827     1.04112
O     -2.61277    -0.03782     1.00991
H     -1.83091    -0.53771     1.28180
