 15
-382.4483458155941
H     -3.24037     0.24278     0.41081
O     -2.38425    -0.00878     0.75850
H     -1.73961     0.65078     0.42039
H      1.44138    -1.34155    -1.69499
O      1.18573    -0.82558    -0.93103
H      0.52605    -1.36013    -0.42864
H     -0.07252     0.82036    -0.98723
O     -0.43507     1.50020    -0.40615
H      0.35643     1.76903     0.08318
H      2.08463     0.53175     0.01425
O      2.22854     1.37990     0.46368
H      2.97825     1.78730     0.03008
H     -1.41666    -1.46555     0.56357
O     -0.71879    -2.14454     0.44739
H     -0.48165    -2.41380     1.33638
