  9
-229.44823802712278
H      1.15894    -2.44422     0.66238
O      0.90458    -2.44761    -0.26373
H      0.15735    -3.04776    -0.31104
H      0.32255    -0.60793    -0.01633
O      0.07344     0.15470     0.51462
H     -0.13607     0.85826    -0.10693
H     -0.11763     3.40470    -0.14590
O     -0.79251     2.72355    -0.15696
H     -0.88747     2.45714     0.76143
