 27
-688.4315802759927
H      1.42508     0.91204     1.20260
O      2.03381     1.22954     0.50511
H      2.92570     1.17446     0.84874
H      1.24911    -2.31182    -0.88098
O      1.44411    -3.16351    -0.44196
H      1.46255    -3.83408    -1.12352
H     -2.12894    -0.98760    -0.14692
O     -2.20294    -1.95516    -0.05737
H     -2.04414    -2.30740    -0.93410
H      0.99300     2.21626    -2.18394
O      0.96616     2.81329    -1.43190
H      1.36431     2.31455    -0.69592
H     -0.07915    -0.30263    -1.07102
O      0.80073    -0.63582    -1.30937
H      1.42386    -0.06109    -0.84565
H      0.12087    -0.78574     2.01085
O      0.13747     0.21024     2.14514
H     -0.17826     0.36617     3.03508
H      0.52028    -2.77835     1.08939
O     -0.12031    -2.36332     1.69302
H     -0.95749    -2.35199     1.19094
H     -1.81064     4.04788    -0.35655
O     -1.65155     3.27923    -0.90527
H     -0.69309     3.27391    -1.11858
H     -0.98812     0.74035     0.68175
O     -1.45321     0.65539    -0.16443
H     -1.67688     1.55719    -0.45999
