 27
-688.429542821302
H      0.31249     0.60328     0.67003
O      0.95706     0.69155    -0.05607
H      0.63750     0.10010    -0.75721
H      2.00953    -2.21750     0.09289
O      1.17941    -2.72029     0.09230
H      0.64525    -2.33395    -0.61616
H     -0.60556    -1.29811    -2.56330
O     -0.46120    -1.21726    -1.62129
H     -1.28515    -0.81814    -1.23802
H      0.89974     2.41795    -0.31194
O      0.60007     3.33761    -0.46623
H      1.32602     3.79582    -0.88885
H      3.77467    -0.79123     1.01907
O      3.26630    -0.88847     0.21353
H      2.62411    -0.15890     0.21266
H     -0.82287    -0.67864     2.08725
O     -0.98598     0.27800     1.91145
H     -1.05466     0.71414     2.76012
H     -1.09281    -3.02929     2.14159
O     -0.44686    -2.32484     2.19343
H      0.20881    -2.51481     1.47891
H     -0.95760     2.92407    -1.13796
O     -1.78459     2.58572    -1.53656
H     -1.75283     2.82151    -2.46331
H     -2.16730     0.26571     0.42712
O     -2.45095     0.15125    -0.49037
H     -2.33623     1.03276    -0.88946
