 27
-688.42666388114
H      1.88510     0.87795     0.44288
O      1.98542     1.42181    -0.35213
H      2.04827     0.78905    -1.08190
H      1.31306    -1.76471    -1.04286
O      1.02565    -2.21608    -0.23542
H      0.05826    -2.30313    -0.31506
H     -0.75524    -0.79595     3.21312
O     -1.59539    -0.46904     3.54165
H     -1.94931     0.02727     2.79895
H      0.63627     2.44413    -0.56911
O     -0.23906     2.89464    -0.63772
H     -0.09591     3.81699    -0.42744
H     -1.99495    -1.56810    -1.24809
O     -1.73086    -1.98086    -0.42224
H     -1.95326    -1.33199     0.25508
H      1.25012    -1.19075     1.05591
O      1.26864    -0.40490     1.66812
H      1.83610    -0.61177     2.41228
H      0.50620    -0.13161    -2.41628
O      1.43634    -0.44416    -2.38504
H      1.74071    -0.56014    -3.28484
H     -0.99334     1.46990    -2.02817
O     -1.06646     0.50994    -1.96937
H     -1.13058     0.37849    -1.00716
H     -0.36288     0.46320     1.22676
O     -1.19114     0.71370     0.78823
H     -1.08192     1.63832     0.50971
