 21
-535.4295579959886
H     -0.99088     2.23725     0.32937
O     -1.71198     2.06571    -0.31232
H     -1.35436     2.30347    -1.16804
H      0.44918     2.45857     2.31966
O      0.35531     2.48988     1.36786
H      1.17741     2.10111     1.00059
H      2.48392    -1.89888     0.90118
O      2.61073    -1.29458     0.16923
H      1.97272    -1.58661    -0.51828
H     -3.24515    -0.04084     1.32317
O     -3.00609    -0.19701     0.40940
H     -2.56756     0.62855     0.11244
H     -2.06553    -1.57498    -0.06283
O     -1.58596    -2.38563    -0.33591
H     -2.26246    -3.00074    -0.62016
H      3.12442     1.69461    -0.38380
O      2.62141     1.40381     0.37696
H      2.61909     0.42367     0.33599
H     -0.07629    -2.20919    -1.17450
O      0.77878    -2.10392    -1.64400
H      0.58252    -1.62329    -2.44840
