 27
-688.4301699113572
H      0.31917     0.56485     0.46445
O      0.97310     0.66548    -0.25184
H      0.67482     0.07353    -0.96138
H      1.92959    -2.28645     0.08753
O      1.07128    -2.73925     0.12449
H      0.55544    -2.36093    -0.60219
H     -0.49282    -1.47721    -2.74199
O     -0.38913    -1.30785    -1.80620
H     -1.21775    -0.85782    -1.49582
H      0.92673     2.39107    -0.48022
O      0.62618     3.31822    -0.57696
H      1.16182     3.70279    -1.27131
H      3.75377    -0.84658     0.92928
O      3.23052    -0.98828     0.14031
H      2.62732    -0.22917     0.07983
H     -0.74832    -0.61718     2.07340
O     -0.99825     0.27090     1.72443
H     -1.09901     0.85030     2.47881
H     -0.72587    -2.93709     2.66957
O     -0.19499    -2.17676     2.43077
H      0.30027    -2.43831     1.61397
H     -2.49093     3.46887    -0.82275
O     -1.95564     2.76106    -1.18106
H     -1.02778     2.98455    -0.95292
H     -2.11615     0.11783     0.20312
O     -2.37906     0.10432    -0.72905
H     -2.32943     1.03969    -0.99747
