 27
-688.4299454098835
H      2.39454    -1.35268     1.04557
O      3.21192    -1.00991     1.45680
H      3.39407    -1.57438     2.20977
H     -0.16211    -0.53360    -2.28647
O     -0.46508    -1.41004    -1.98905
H     -1.38301    -1.28096    -1.71701
H     -2.25062    -1.11481     0.81264
O     -1.70957    -1.19374     1.61277
H     -1.40722    -0.29651     1.77882
H     -1.18936     1.73844    -0.03701
O     -2.00351     1.97348    -0.52604
H     -2.41052     2.71411    -0.07613
H      0.46638     0.02377     0.55131
O      0.27858     0.98692     0.63091
H      1.04888     1.37647     1.08404
H      3.00001     0.71429     1.65977
O      2.71065     1.65139     1.70703
H      3.41450     2.16941     1.31406
H     -2.73745     0.38129    -0.81304
O     -2.91455    -0.57837    -0.83385
H     -3.82152    -0.70928    -1.10871
H      0.64344     1.28903    -1.38318
O      0.29336     1.22444    -2.28152
H     -0.50195     1.76209    -2.26081
H     -0.07608    -1.85968     0.96005
O      0.71957    -1.71402     0.41490
H      0.42703    -1.76746    -0.52397
