 30
-764.9252027671085
H      1.76043     2.35875     1.15465
O      1.31398     2.07560     1.96075
H      1.58703     1.15342     2.04102
H     -0.34566     2.58409     2.21353
O     -1.28545     2.86463     2.22924
H     -1.27442     3.81370     2.35694
H      0.45731    -2.24742    -0.77131
O      0.43019    -1.49867    -0.14247
H     -0.49101    -1.44026     0.16032
H     -0.91484    -3.19014    -2.09924
O      0.01055    -3.49085    -1.95882
H     -0.01151    -4.44787    -1.94369
H      1.72943    -0.89448     0.79772
O      2.46231    -0.44462     1.27951
H      2.87398    -1.08988     1.85383
H     -2.26827     0.00989     0.13823
O     -2.35382    -0.97834     0.29394
H     -2.86102    -1.08130     1.09826
H      0.59845     0.19747    -1.09064
O      0.54904     1.13909    -1.31034
H      1.42141     1.49663    -1.10268
H     -2.51250    -1.90804    -1.22870
O     -2.44716    -2.35442    -2.09380
H     -2.47532    -1.64725    -2.74173
H      3.88917     1.79041    -0.75020
O      3.06437     1.70752    -0.27086
H      3.08683     0.86103     0.20967
O     -1.92611     1.58681    -0.13504
H     -1.80487     2.10206     0.68541
H     -1.06456     1.59289    -0.59424
