 27
-688.4324162858184
H      2.45156    -0.17076    -1.30508
O      2.38911     0.47992    -2.02290
H      1.65442     0.18029    -2.56551
H      1.39639    -2.26255    -1.11718
O      0.72571    -2.49040    -1.78470
H      1.17349    -2.94694    -2.49678
H     -3.14429    -1.48886     1.05255
O     -2.43794    -0.91444     0.75967
H     -2.65420     0.00211     1.04574
H     -0.14685     1.12433    -0.92588
O      0.42739     1.85031    -0.60646
H      1.27716     1.66766    -1.04185
H     -0.66565    -0.99263     1.29735
O      0.19802    -0.79731     1.69352
H      0.13261     0.11075     2.02360
H      0.28101     2.04906     1.05853
O      0.01802     2.00556     2.01528
H      0.56718     2.62442     2.49414
H      1.51065    -1.08689     0.73180
O      2.27234    -1.34042     0.14648
H      3.00215    -1.57718     0.71833
H     -0.40706    -1.10277    -1.73114
O     -0.95506    -0.32495    -1.55101
H     -1.61623    -0.63083    -0.91674
H     -1.75394     1.87279     1.75744
O     -2.63569     1.68241     1.39137
H     -2.69764     2.19915     0.58569
