 21
-535.4317517087028
H      1.55640    -1.10377     0.49094
O      1.44555    -0.92580     1.43350
H      2.01879    -0.15330     1.55296
H     -0.15283    -1.01573     2.11905
O     -1.09466    -1.06488     2.40328
H     -1.25297    -1.96740     2.67968
H     -1.26807     0.15546    -2.30489
O     -0.59973    -0.35513    -1.82622
H     -0.94658    -0.32827    -0.92323
H     -2.92706     0.95380    -1.18359
O     -2.95299     1.10134    -2.14335
H     -3.80113     0.76629    -2.43587
H      2.84981     2.15981     0.66120
O      3.06981     1.23036     0.72393
H      2.82666     0.83422    -0.12951
H      1.10715    -0.28736    -1.62621
O      2.04492    -0.34950    -1.33872
H      2.49313    -0.92571    -1.95726
H     -1.89207    -0.09792     1.20784
O     -2.09624     0.54501     0.49464
H     -1.71275     1.37367     0.79169
