  9
-229.45877577864988
H      0.41506    -1.14264     0.16494
O      1.28394    -0.89078     0.52397
H      1.92829    -1.41042     0.04276
H     -1.06452     0.26299    -0.46249
O     -1.30643    -0.67719    -0.52449
H     -2.08920    -0.77439     0.01898
H      0.79367     0.96133     0.34420
O      0.16935     1.63620     0.02736
H      0.66529     2.18768    -0.57782
