 18
-458.93697705353327
H     -0.00512     0.63444     0.58649
O      0.45008    -0.09221     0.12123
H      0.67340    -0.76932     0.77890
H      2.63164    -1.70191     0.91336
O      1.94231    -2.08412     1.48381
H      1.90623    -3.01728     1.27104
H     -0.67498    -0.41098    -1.21019
O     -1.40305    -0.39547    -1.86574
H     -1.00726    -0.12467    -2.69482
H      2.34354    -0.06413    -0.42029
O      3.24097    -0.42626    -0.33842
H      3.78731     0.30254    -0.04127
H     -1.95180     1.69380     0.61658
O     -1.12481     1.94118     1.08336
H     -0.97957     2.86767     0.88828
H     -3.84881     0.44575    -0.07771
O     -3.20948     1.06195    -0.43870
H     -2.65294     0.53422    -1.05028
