 21
-535.4375037458881
H      0.43642    -1.67459    -0.38330
O      0.81248    -0.93768     0.12931
H      0.08926    -0.61509     0.68667
H      0.08776     2.47688    -0.07266
O     -0.76324     2.74885     0.34880
H     -1.15652     3.39899    -0.23339
H     -3.18685    -0.60408    -0.95806
O     -2.77807    -1.20467    -0.33331
H     -2.36511    -0.64294     0.34578
H     -1.35502     0.46371     2.39181
O     -1.40831     0.38957     1.43851
H     -1.25581     1.29270     1.07449
H      4.03880    -0.32455     0.20393
O      3.31085     0.19275     0.54874
H      2.52164    -0.37677     0.50031
H      1.07352     0.77822    -0.92559
O      1.41139     1.68169    -0.84608
H      2.25132     1.53375    -0.38607
H     -0.90050    -3.71523    -0.94861
O     -0.72592    -2.79632    -1.15461
H     -1.53478    -2.29654    -0.91614
