 18
-458.9445197003611
H      1.79446    -1.25342    -1.98410
O      1.14264    -0.73360    -1.51598
H      1.51063    -0.53939    -0.61137
H     -1.79357    -0.66171    -0.90929
O     -1.47818    -1.51271    -0.59093
H     -0.61315    -1.59363    -1.01357
H     -0.78654    -0.05501     1.99097
O     -0.58492    -0.99590     1.95413
H     -1.00568    -1.29598     1.12832
H     -0.48302     1.72174     0.14457
O     -0.19771     1.88308     1.06179
H     -0.26103     2.82295     1.22662
H      1.17015    -0.66209     1.46667
O      1.79979    -0.09644     0.97723
H      1.40518     0.78044     1.09926
H     -0.73246     1.89892    -2.22513
O     -0.76210     1.22042    -1.55092
H     -0.04246     0.59132    -1.74399
