 27
-688.4265100118209
H      1.46320    -1.56325    -0.58392
O      1.83178    -0.67596    -0.44103
H      1.55571    -0.17108    -1.21538
H      0.64073    -3.65101    -1.70663
O      0.41187    -2.95566    -1.08973
H     -0.34886    -2.48364    -1.46481
H     -1.24466    -1.80790     3.49123
O     -1.40023    -0.89955     3.23322
H     -0.51896    -0.51866     3.08291
H     -1.64003    -0.78640    -0.90454
O     -1.60364    -1.18124    -1.81255
H     -2.50434    -1.29926    -2.11520
H      0.63896     0.50113    -3.62929
O      0.47383     0.38434    -2.69491
H     -0.27305    -0.23191    -2.59306
H      1.35696    -0.11920     1.16329
O      0.84618     0.26138     1.90758
H      1.02090     1.22345     1.91591
H      0.01281     1.73014    -1.48712
O     -0.36920     2.22277    -0.75006
H     -1.01001     1.61615    -0.35509
H      2.03552     3.28248     1.03732
O      1.20033     2.93301     1.35124
H      0.63275     2.82412     0.55741
H     -0.57438     0.04762     0.99047
O     -1.48697    -0.05018     0.61786
H     -1.95152    -0.36937     1.40553
