 27
-688.4283547164331
H      1.03455    -0.07685    -0.04135
O      0.81320     0.03716    -0.97873
H      0.58709    -0.84655    -1.33302
H     -0.25710    -2.75564    -0.91128
O     -0.05087    -2.40664    -1.81162
H     -0.83986    -2.54790    -2.33504
H      0.96306     1.22024     1.96458
O      0.88201     0.26922     1.87898
H     -0.06821     0.04791     1.92066
H     -0.11389     3.52795    -0.92916
O     -1.02269     3.78980    -0.68878
H     -1.28319     4.46432    -1.31615
H      1.78098    -1.29741     1.89249
O      1.97027    -2.22886     1.69954
H      2.78900    -2.24604     1.20344
H     -1.71301     2.12765    -0.67178
O     -1.82254     1.16015    -0.71530
H     -0.99309     0.83222    -1.09498
H     -0.99685    -2.21317     1.07648
O     -0.51001    -2.98845     0.76884
H      0.37575    -2.89628     1.15510
H      1.96803     2.84165    -2.10053
O      1.39927     2.67566    -1.34843
H      1.25358     1.71044    -1.31428
H     -1.84080     0.14224     0.63717
O     -1.70244    -0.45633     1.41614
H     -2.48337    -0.39078     1.96725
