 27
-688.4352389995514
H      2.82103    -1.22758    -1.08931
O      2.01205    -0.76246    -0.87849
H      1.26637    -1.41807    -0.92530
H     -0.45607    -2.79664    -0.33358
O     -0.19278    -2.22407    -1.07555
H     -0.87048    -1.53670    -1.14849
H      1.50293     1.86929     0.89237
O      1.34802     0.96248     1.19799
H      1.70459     0.38657     0.49909
H      1.22532     3.98706    -0.61077
O      0.78165     3.21461    -0.26245
H      0.67354     2.58424    -1.01321
H     -0.37333     1.50275     1.11774
O     -1.31733     1.70674     0.96784
H     -1.28971     2.58804     0.58570
H     -0.80465    -2.59682     1.71143
O     -0.85469    -3.47585     1.28544
H     -0.34170    -4.07224     1.83075
H     -1.26872    -0.20504     1.90443
O     -0.61574    -0.87711     2.12316
H      0.23171    -0.44216     1.95740
H      1.22313     0.61665    -1.86247
O      0.56883     1.28452    -2.11680
H     -0.28070     0.82977    -2.02187
H     -1.73440     0.65350    -0.34449
O     -1.79964     0.11386    -1.16082
H     -2.71029     0.13451    -1.45565
