  9
-229.4587803355631
H      1.89544    -1.08381     0.35539
O      1.45181    -0.49313    -0.25348
H      0.55662    -0.85465    -0.37019
H     -1.21728     0.29705    -0.00873
O     -1.35136    -0.63983    -0.23558
H     -1.96439    -0.98278     0.41491
H      0.02142     2.48197    -0.35252
O     -0.06665     1.79133     0.30539
H      0.70358     1.21164     0.17485
