 27
-688.4366735819755
H      3.65837     0.90659     0.48594
O      2.81676     0.52578     0.23826
H      2.17090     1.25048     0.12365
H      1.07599    -1.66167    -1.15665
O      1.64208    -1.09725    -1.70146
H      2.25213    -0.67101    -1.08528
H     -3.22030    -0.84073    -1.53092
O     -2.41400    -0.60277    -1.07450
H     -2.67191    -0.19725    -0.21353
H      0.33097     1.75757    -1.04130
O      0.73770     2.21391    -0.25547
H      0.74887     3.14936    -0.45446
H     -0.71885    -3.18514    -0.18707
O     -0.42675    -2.27366    -0.19653
H     -1.16323    -1.73032    -0.53452
H     -0.00634     1.58752     1.40073
O     -0.40081     1.08226     2.12802
H      0.15916     0.28274     2.21389
H      0.65928    -1.63128     1.20333
O      1.19358    -1.12305     1.82900
H      1.90081    -0.72409     1.30546
H      0.46533     0.11822    -2.29803
O     -0.23865     0.79936    -2.29014
H     -1.03911     0.34111    -1.99333
H     -1.96815     0.64228     1.69122
O     -2.87223     0.40539     1.35648
H     -3.47948     0.99611     1.79906
