 27
-688.4351887632583
H      2.15209     1.73567    -0.19053
O      2.61353     0.90209    -0.01947
H      2.32236     0.30889    -0.72629
H      1.10830    -1.67017    -1.03579
O      1.47273    -1.04432    -1.69337
H      1.94623    -1.54659    -2.35562
H     -2.25625    -1.12073    -1.24325
O     -2.25587    -1.66659    -0.45230
H     -2.67051    -1.10914     0.23827
H      0.27296     2.31932    -1.23019
O      0.80110     2.92521    -0.66593
H      0.95281     3.72589    -1.16998
H      0.16077    -3.41085     0.39117
O      0.20494    -2.47492     0.19563
H     -0.72256    -2.17655     0.01287
H     -0.05885     1.87084     0.97525
O     -0.52909     1.04899     1.15413
H      0.13388     0.42583     1.54143
H      1.20227    -1.38755     1.44782
O      1.42194    -0.58682     1.94528
H      2.05383    -0.08411     1.39586
H      0.10894     0.19715    -1.89248
O     -0.57237     0.85039    -1.67329
H     -0.77722     0.72862    -0.73025
H     -2.19886     0.59371     1.38758
O     -3.07197     0.15124     1.37074
H     -3.37782     0.09988     2.27664
