 27
-688.4411897402017
H      0.68481    -0.99900    -1.38200
O      1.33923    -0.29674    -1.23736
H      1.72754    -0.45213    -0.36074
H     -1.56423    -1.19212    -1.10219
O     -0.93657    -1.94848    -1.24771
H     -1.31097    -2.50968    -1.92567
H      1.03302     0.82195     1.78673
O      0.29560     1.44067     1.89502
H      0.15428     1.84485     1.02506
H      0.34704     1.15022    -1.00874
O     -0.18378     1.95269    -0.82579
H      0.13485     2.58995    -1.46838
H     -2.42417     0.13298     2.94310
O     -1.88293    -0.06539     2.17978
H     -1.10164     0.54456     2.19645
H      2.70318    -1.20189     1.87111
O      1.94172    -0.82981     1.42836
H      1.18463    -1.46176     1.54153
H     -0.50256    -2.36924     0.51467
O     -0.28837    -2.27756     1.45511
H     -0.97083    -1.69067     1.81428
H      2.86930     2.12897    -2.92407
O      1.94353     1.89365    -2.86258
H      1.90885     1.02242    -2.43736
H     -1.85479     0.96102    -0.74562
O     -2.38891     0.17351    -0.56294
H     -2.40566     0.09356     0.40336
