 27
-688.4321315154926
H      1.06656     1.32957     1.96844
O      1.58777     0.59118     2.35382
H      1.28349     0.50167     3.25572
H     -0.95336    -2.93584    -1.62996
O     -1.88362    -2.62681    -1.69581
H     -2.43090    -3.36940    -1.43579
H     -2.07125     0.55985     1.00698
O     -2.35236     1.20237     1.68502
H     -3.26848     1.41571     1.50782
H     -0.84145     2.21575     1.62776
O      0.02144     2.55243     1.33207
H     -0.07757     2.63582     0.37566
H      2.47930     1.75861    -0.04748
O      2.27823     1.28966    -0.86304
H      1.39909     1.60217    -1.13317
H      1.63954    -0.79690     1.09435
O      1.53580    -1.10953     0.17796
H      1.92250    -0.37691    -0.34697
H      1.36429    -3.37252    -2.03550
O      0.73180    -3.25860    -1.32466
H      1.09231    -2.55267    -0.75011
H     -0.81972     1.09386    -1.12377
O     -0.38924     1.93694    -1.38225
H     -0.76188     2.22218    -2.21626
H     -0.33383    -0.73637    -0.01797
O     -1.20950    -0.40479    -0.28698
H     -1.62800    -1.12536    -0.80070
