 27
-688.4420485713428
H      0.97384    -1.27430    -2.12589
O      1.83709    -0.89598    -2.36078
H      2.49508    -1.44931    -1.94071
H     -1.37155    -1.32997    -1.28496
O     -0.65313    -1.92815    -1.61906
H     -1.07758    -2.59014    -2.16411
H      0.59258     1.41175     1.84317
O     -0.33021     1.66972     1.99321
H     -0.64688     1.97777     1.12953
H     -0.04562     1.90996    -1.04308
O     -0.97241     2.07207    -0.72228
H     -1.28120     2.85991    -1.17036
H     -2.12972    -0.79818     3.00993
O     -1.62751    -0.63608     2.21261
H     -1.19708     0.25255     2.29936
H      2.82009     0.18352     1.69692
O      2.04120     0.37331     1.17734
H      1.56731    -0.48118     1.03917
H      0.22030    -2.06213     0.03521
O      0.55832    -1.85437     0.91772
H     -0.22484    -1.62407     1.44169
H      1.89268     1.35159    -0.42613
O      1.58439     1.62715    -1.30274
H      1.73725     0.84531    -1.86137
H     -2.06763     0.56253    -0.56150
O     -2.42672    -0.33300    -0.44971
H     -2.32852    -0.53001     0.49395
