  9
-229.45859677280959
H      0.21294    -1.21164    -0.02641
O      1.17944    -1.10008    -0.05542
H      1.46565    -1.54688    -0.85294
H     -1.20380     0.41657    -0.01940
O     -1.55353    -0.48621     0.04280
H     -2.03628    -0.50565     0.86935
H      0.93622     2.33349    -0.10679
O      0.36627     1.57547     0.02223
H      0.94026     0.78995     0.02981
