 27
-688.429442863206
H      1.08537    -2.83323    -0.32594
O      1.96995    -2.62370    -0.64715
H      1.81587    -2.41229    -1.57373
H     -0.32851    -1.63682    -1.85555
O      0.10560    -1.55893    -2.72932
H     -0.54503    -1.79605    -3.39147
H      0.89763    -0.12249     3.71965
O      1.21086     0.53498     3.09791
H      0.42723     1.02649     2.78909
H     -0.61124     1.67091    -1.22539
O     -1.38923     2.03990    -0.72347
H     -1.72109     2.77312    -1.24051
H      1.75261     0.06470     1.42533
O      1.71420    -0.10067     0.46735
H      2.11802    -0.96068     0.26117
H     -0.93073     2.01673     0.99611
O     -0.88016     1.99142     1.96991
H     -0.79402     2.90190     2.25837
H     -1.47918    -1.05196     0.17375
O     -0.64572    -1.46611    -0.11770
H      0.08100    -0.88384     0.17797
H      1.28313     0.79084    -1.08928
O      0.77273     1.05052    -1.87526
H      0.63756     0.22983    -2.37244
H     -2.60089     0.76095     0.02897
O     -2.82011     0.07393     0.67526
H     -2.55208     0.46671     1.51061
