 27
-688.4331524477959
H      2.10691    -1.20730    -0.79478
O      1.94870    -0.92312    -1.70627
H      1.45417    -1.65124    -2.12269
H     -0.19522    -2.80763    -1.47179
O      0.15519    -2.87965    -2.38832
H      0.14894    -3.80845    -2.61858
H      0.22166     1.47296     1.93566
O      1.06112     1.19312     1.54715
H      0.94420     1.35510     0.59634
H     -0.50960     2.53168    -0.92325
O     -0.90268     3.33827    -0.52651
H     -0.38280     4.08239    -0.83220
H      1.54483    -0.41697     1.39480
O      1.81093    -1.32657     1.11832
H      2.50195    -1.62494     1.70925
H     -1.39425     2.77178     1.02624
O     -1.56886     2.21307     1.81681
H     -1.96772     2.76839     2.48551
H     -1.15126    -1.80698     0.41279
O     -0.51164    -2.49575     0.19379
H      0.32294    -2.19749     0.58377
H      0.76984     0.29309    -1.45143
O      0.06076     0.88147    -1.09973
H     -0.64528     0.29465    -0.78857
H     -1.92146     0.59209     1.12666
O     -2.04997    -0.18747     0.56041
H     -2.93566    -0.13290     0.19887
