  9
-229.4587769178782
H      0.23940    -1.19194    -0.09256
O      1.20361    -1.07201    -0.05193
H      1.50947    -1.64453     0.65171
H     -1.14022     0.44464     0.04811
O     -1.53156    -0.44555     0.00638
H     -2.17215    -0.48430     0.71683
H      0.61411     2.10932    -0.70858
O      0.38220     1.60068     0.06931
H      0.96145     0.81944     0.04866
