 27
-688.4302826582096
H      2.55568    -1.88846    -2.55568
O      1.61019    -2.04759    -2.58357
H      1.42391    -2.48481    -1.74099
H      2.12604    -1.61347     0.23328
O      1.81982    -2.54879     0.29179
H      2.25108    -2.94146     1.05167
H     -2.39139     0.80346     1.77037
O     -1.93992     0.04643     2.20174
H     -2.50957    -0.27512     2.89953
H     -2.18009     2.36571     0.22398
O     -2.87826     2.22946     0.88997
H     -3.05954     3.08600     1.27844
H      1.84480     0.31405    -0.83027
O      2.30120     0.07325    -0.01600
H      1.75577     0.47412     0.69451
H      0.07760     1.77235     0.94175
O      0.50701     1.24255     1.62775
H     -0.21370     0.74862     2.03916
H     -0.28330     3.11708    -1.19744
O     -0.66406     2.36264    -0.74915
H     -0.45877     1.56457    -1.28827
H     -0.48908    -0.52769    -1.22391
O     -0.09375     0.02801    -1.92870
H      0.44837    -0.59919    -2.43186
H      0.00782    -2.03338     0.40625
O     -0.80553    -1.57136     0.15895
H     -1.15340    -1.13281     0.94788
