 27
-688.4324414590889
H      1.58919     0.12395    -0.05860
O      1.78763     0.09956    -1.00888
H      1.49889    -0.77941    -1.31219
H      0.05625    -2.60324    -1.02882
O      0.85483    -2.42111    -1.58331
H      0.76677    -2.94700    -2.37725
H      0.45450     1.31060     1.44982
O      0.53471     0.34959     1.55307
H     -0.36916    -0.00357     1.54237
H      0.55201     3.00119    -0.17069
O      0.32855     3.09046     0.77469
H      0.94199     3.71880     1.15566
H      1.24432    -1.37703     1.65083
O      1.32098    -2.32354     1.45884
H      1.75023    -2.36343     0.59861
H     -1.53608     2.57085     0.23861
O     -2.00250     2.01845    -0.40063
H     -1.37486     1.98061    -1.13565
H     -1.58306    -2.02303     0.40028
O     -1.08609    -2.82880     0.19562
H     -0.38984    -2.87672     0.87285
H      0.67818     2.51877    -2.68800
O      0.44253     2.22705    -1.80861
H      0.96119     1.39559    -1.62329
H     -2.17333     0.48410     0.35477
O     -2.16809    -0.32147     0.92422
H     -2.94042    -0.26257     1.48922
