 21
-535.4341659539663
H     -1.58239     0.32175    -0.31978
O     -0.86914     0.96917    -0.45507
H     -0.10322     0.47767    -0.77326
H     -0.35798     2.32520     0.48119
O      0.12917     3.01564     0.98754
H     -0.45223     3.30609     1.68994
H     -0.67551    -2.81884    -0.13611
O     -1.55923    -3.14731    -0.39891
H     -1.42446    -3.69936    -1.16919
H     -2.55390    -1.71565    -0.23176
O     -2.94887    -0.82388    -0.15139
H     -3.66435    -0.79388    -0.78711
H      2.17147     0.25209    -1.84108
O      1.83780     0.06737    -0.96342
H      2.20592     0.76452    -0.37203
H      1.76488     2.49490     0.81123
O      2.62675     2.04557     0.66118
H      3.05118     2.00079     1.51807
H      1.24424    -1.39078    -0.12183
O      0.86369    -2.14651     0.35486
H      1.00148    -1.97204     1.28674
