 18
-458.9406728203864
H      2.86208    -1.55134    -1.27086
O      1.98960    -1.24620    -1.02290
H      1.70891    -1.80464    -0.28296
H      1.70772     0.35021     0.14974
O      1.32153     0.68414     0.97028
H      1.00591    -0.12958     1.38479
H     -1.49547    -0.36379    -0.88118
O     -0.99693    -1.20316    -0.91829
H     -0.22333    -1.02145    -1.46097
H     -0.00909     3.36789     0.08356
O     -0.50381     2.66390     0.50450
H      0.15234     1.97019     0.73329
H     -0.27617    -1.82634     0.53522
O      0.43408    -2.04520     1.18193
H      0.02536    -2.51690     1.90650
H     -3.21735     1.23139    -0.35166
O     -2.36374     1.14161    -0.77565
H     -1.76501     1.77403    -0.32662
