  9
-229.4587796373264
H      1.51688    -1.73307     0.18813
O      1.09222    -1.16735    -0.45787
H      0.13789    -1.25822    -0.29267
H     -2.29173    -0.36326    -0.40144
O     -1.54906    -0.49837     0.18735
H     -1.12785     0.37237     0.28739
H      0.94516     0.71266    -0.14575
O      0.42253     1.49716     0.09654
H      0.62721     2.16273    -0.56057
