  9
-229.45878397374378
H      0.14867    -1.18273    -0.11730
O      1.10848    -1.08874    -0.24465
H      1.50780    -1.69473     0.38057
H     -2.27978    -0.26661    -0.23364
O     -1.54736    -0.44285     0.35706
H     -1.12522     0.41760     0.52172
H      0.65590     2.24114    -0.16854
O      0.43368     1.54150     0.44615
H      0.96134     0.77004     0.17455
