 40
-1146.2723341261155
C      5.37812    -4.63114    -0.02603
C      5.84020    -6.05074    -0.19324
O      6.07854    -3.73173     0.36958
O      4.09348    -4.47279    -0.37586
H      3.83720    -3.54629    -0.23379
H      6.58569    -6.08467    -0.98553
H      6.32681    -6.37230     0.72437
H      5.00853    -6.70269    -0.43650
C      3.56505    -0.81738     0.04106
C      5.05190    -0.77692     0.10303
O      2.91257    -1.85325    -0.00710
O      3.00172     0.37359     0.04840
H      2.02367     0.30119     0.01391
H      5.37877    -1.22613     1.03733
H      5.46019    -1.39749    -0.68882
H      5.40331     0.24562     0.02512
C     -2.13573     3.16433    -0.08386
C     -2.61370     4.57592    -0.12626
O     -2.85916     2.18834    -0.01529
O     -0.80984     3.05930    -0.12827
H     -0.56999     2.11832    -0.09355
H     -3.28913     4.69967    -0.96837
H     -3.20572     4.77827     0.76233
H     -1.77291     5.25646    -0.19726
C     -6.30887     3.21983     0.11612
C     -7.80366     3.07230     0.21437
O     -5.74280     4.28151     0.03095
O     -5.68443     2.03416     0.14077
H     -4.72042     2.17518     0.08259
H     -8.26857     3.66589    -0.56913
H     -8.09508     2.03086     0.13382
H     -8.13148     3.47813     1.16987
C     -0.44954    -0.77699    -0.00648
C     -1.94108    -0.82445     0.00468
O      0.19342     0.26500    -0.04312
O      0.11851    -1.96499     0.02929
H      1.09855    -1.89520     0.01836
H     -2.32394    -0.27744    -0.85174
H     -2.28006    -1.85435    -0.00430
H     -2.30627    -0.30640     0.88744
