 64
-1834.0617893997937
C      0.62748    -0.84343    -2.67849
C     -0.46723    -0.85736    -3.68977
O      0.67122    -1.53349    -1.67413
O      1.58192     0.02895    -2.97081
H      2.24811     0.05808    -2.26168
H     -0.05655    -0.72286    -4.68712
H     -1.03252    -1.77643    -3.60592
H     -1.14100    -0.02738    -3.47460
C      6.61933     2.40914    -1.29951
C      7.88892     3.04463    -1.77767
O      6.21777     2.53854    -0.15153
O      5.98569     1.70970    -2.21638
H      5.15675     1.31802    -1.84963
H      7.81514     4.12107    -1.64555
H      8.71187     2.69661    -1.15855
H      8.06627     2.80077    -2.81851
C     -1.17219    -1.78938     2.42432
C     -0.25243    -2.94716     2.64639
O     -2.36330    -1.81208     2.65294
O     -0.56194    -0.71427     1.93504
H     -1.22564    -0.03854     1.70345
H      0.61782    -2.62856     3.21517
H     -0.78022    -3.73363     3.17577
H      0.08964    -3.31769     1.68355
C      3.46954     0.61185     0.00221
C      2.33754    -0.19232     0.54079
O      3.74246     0.63288    -1.19634
O      4.14004     1.30400     0.88722
H      4.92561     1.76437     0.47522
H      1.41883     0.21825     0.14024
H      2.40895    -1.20942     0.17325
H      2.31506    -0.15487     1.62256
C     -2.38673    -3.00078    -0.94104
C     -3.41809    -3.84490    -0.25865
O     -2.62290    -2.22300    -1.83414
O     -1.16025    -3.18143    -0.43041
H     -0.53323    -2.58544    -0.88446
H     -3.11550    -4.89031    -0.24816
H     -3.52808    -3.50219     0.76658
H     -4.36858    -3.73298    -0.76789
C      0.62264     3.12512     0.96038
C      1.72294     4.05389     1.36764
O      0.65286     2.48732    -0.08407
O     -0.35468     3.03798     1.83210
H     -1.03650     2.40136     1.50999
H      1.36049     4.77595     2.09286
H      2.51538     3.46097     1.81912
H      2.12830     4.54950     0.49047
C     -2.24463     1.04967    -0.39968
C     -3.53413     0.52362    -0.90925
O     -2.04649     1.27365     0.79573
O     -1.31353     1.27258    -1.29490
H     -0.52139     1.70250    -0.87464
H     -3.83110    -0.34663    -0.33202
H     -4.29818     1.28191    -0.74737
H     -3.46026     0.27007    -1.95724
C     -5.67562    -1.61984     2.02998
C     -7.17349    -1.61030     2.18400
O     -5.10605    -1.45304     0.97555
O     -5.05464    -1.84105     3.18836
H     -4.08843    -1.82469     3.04261
H     -7.60616    -2.32443     1.48608
H     -7.45172    -1.85581     3.20287
H     -7.55250    -0.62536     1.91681
