 80
-2292.584690775633
C      2.15793    -2.52064     2.03303
C      0.81639    -2.82759     2.61738
O      2.81271    -1.54909     2.37770
O      2.56441    -3.37056     1.11246
H      3.44156    -3.09806     0.74597
H      0.81673    -2.58513     3.67614
H      0.08125    -2.19629     2.12400
H      0.56483    -3.86987     2.45527
C     -2.68737     1.81487     3.47514
C     -1.35114     1.35251     3.01138
O     -3.55685     2.22467     2.70535
O     -2.85554     1.77026     4.77254
H     -3.74477     2.12887     5.03647
H     -0.92721     0.63542     3.70593
H     -1.44134     0.93574     2.01429
H     -0.69968     2.21992     2.93753
C      0.17434    -0.81476    -4.10817
C     -0.43737    -1.57924    -5.23980
O      1.25057    -1.09411    -3.60491
O     -0.56724     0.18923    -3.68575
H     -0.11314     0.61859    -2.92878
H      0.30275    -2.23603    -5.68184
H     -1.25933    -2.17223    -4.84153
H     -0.83728    -0.89125    -5.98054
C     -1.43525     3.55242    -0.13229
C     -2.54450     4.53723     0.08430
O     -0.61397     3.26222     0.70495
O     -1.45992     3.00454    -1.35144
H     -0.70036     2.40683    -1.43030
H     -3.39031     4.29731    -0.55097
H     -2.83485     4.50277     1.12927
H     -2.19109     5.54031    -0.15272
C      1.69028     0.82496    -0.97831
C      2.10955     1.46210     0.29927
O      0.77625     1.24579    -1.67615
O      2.38914    -0.24179    -1.31500
H      2.03779    -0.61373    -2.16034
H      1.51008     2.34512     0.48681
H      1.97844     0.74377     1.10581
H      3.16566     1.71537     0.24836
C     -3.25689     0.41931    -0.58010
C     -3.55387     0.07539    -1.99643
O     -2.31721    -0.01263     0.06517
O     -4.11209     1.28613    -0.05129
H     -3.86156     1.45443     0.87198
H     -3.06972    -0.86274    -2.24447
H     -4.62889     0.02744    -2.15466
H     -3.14042     0.85728    -2.63291
C     -0.52587    -2.59625    -1.25779
C      0.51960    -3.66203    -1.35457
O     -1.46813    -2.50425    -2.00783
O     -0.30894    -1.74519    -0.24967
H     -1.04264    -1.09622    -0.19145
H      1.48111    -3.20636    -1.58546
H      0.62304    -4.17918    -0.40527
H      0.25585    -4.36342    -2.13834
C     -5.88656     3.54615     4.83867
C     -7.06392     4.29817     5.38048
O     -5.22071     2.78756     5.52305
O     -5.64264     3.78388     3.56198
H     -4.88270     3.24422     3.24731
H     -6.73182     4.92205     6.20655
H     -7.51791     4.90387     4.60495
H     -7.78215     3.58682     5.78008
C      5.38092    -1.44874     0.27516
C      6.54370    -0.96797    -0.52129
O      4.88422    -2.56573     0.13140
O      4.91764    -0.58585     1.14591
H      4.14524    -0.96519     1.64366
H      6.95690    -0.06615    -0.08420
H      7.28738    -1.75750    -0.57584
H      6.20584    -0.78280    -1.53970
C      4.50151    -2.89042    -3.39479
C      3.98416    -3.34371    -4.72767
O      5.29999    -2.00114    -3.23129
O      3.94967    -3.57914    -2.38427
H      4.31683    -3.24946    -1.54908
H      2.98669    -2.93050    -4.86979
H      4.63796    -2.97496    -5.51104
H      3.91455    -4.42821    -4.76117
