 48
-1375.5477924895922
C      0.64921     0.92687    -2.98947
C      1.07809     0.07842    -4.14529
O      1.02297     2.05628    -2.78765
O     -0.19468     0.28281    -2.17102
H     -0.46535     0.90352    -1.47486
H      0.21997    -0.41786    -4.59304
H      1.58820     0.69248    -4.88025
H      1.76131    -0.68682    -3.77994
C      0.45700    -2.63649    -1.06603
C     -0.62287    -3.43693    -1.71423
O      1.56630    -2.48847    -1.53986
O      0.09235    -2.08721     0.08747
H      0.79212    -1.45662     0.39641
H     -1.09139    -4.08819    -0.98117
H     -1.37926    -2.74771    -2.08885
H     -0.21162    -4.00990    -2.54007
C     -0.34100     1.20797     2.59378
C     -0.21546     0.25967     3.74039
O      0.30916     2.24135     2.51929
O     -1.19665     0.83062     1.67262
H     -1.17528     1.44263     0.90238
H      0.66406    -0.35904     3.56774
H     -0.06265     0.82264     4.65723
H     -1.09584    -0.36878     3.80231
C     -0.46655     3.56609    -0.42579
C     -0.57253     4.51875    -1.57256
O     -1.00468     2.45890    -0.42972
O      0.25319     3.99970     0.57703
H      0.25770     3.34850     1.33287
H     -1.61568     4.61780    -1.86306
H     -0.15004     5.47823    -1.29837
H     -0.02921     4.09153    -2.41293
C      2.63958     0.23914     0.01925
C      3.16580     1.61700     0.26137
O      1.92788    -0.35379     0.81472
O      3.00763    -0.26793    -1.13733
H      2.56936    -1.14133    -1.27931
H      2.73647     2.28767    -0.47964
H      2.88572     1.93553     1.25773
H      4.24833     1.63093     0.15076
C     -2.72868    -3.58471     1.98903
C     -3.73263    -3.60813     3.10852
O     -2.47932    -4.50382     1.25182
O     -2.12321    -2.38507     1.89914
H     -1.48566    -2.41551     1.17013
H     -4.08002    -4.62299     3.26389
H     -3.27823    -3.21508     4.01569
H     -4.57510    -2.96666     2.85374
