 48
-1375.5463587891513
C      0.65967     4.55176     3.12062
C      1.02561     5.34285     4.33928
O      1.30733     4.61213     2.08531
O     -0.40988     3.79703     3.26541
H     -0.57398     3.27653     2.44396
H      2.07002     5.16199     4.57790
H      0.92211     6.40126     4.11188
H      0.38735     5.07436     5.17264
C      2.11491     0.07484     0.56312
C      2.57315     1.28762     1.30616
O      1.63439     0.14012    -0.56065
O      2.25336    -1.04372     1.22744
H      1.97464    -1.81568     0.66659
H      1.74985     1.66082     1.91139
H      3.40544     1.05935     1.96287
H      2.83965     2.05851     0.59399
C     -0.37522     2.73833    -0.08336
C     -0.84349     2.09738    -1.34306
O     -0.71322     2.34458     1.03236
O      0.44073     3.74733    -0.25784
H      0.73886     4.11699     0.61628
H     -1.86303     1.74523    -1.22851
H     -0.75073     2.78768    -2.17437
H     -0.22103     1.21983    -1.51947
C     -1.29235    -1.31875     0.75176
C     -1.38702    -2.74962     1.15916
O     -1.51926    -0.89387    -0.36256
O     -0.92144    -0.51924     1.74884
H     -0.91914     0.39102     1.41687
H     -1.83591    -3.31705     0.35270
H     -0.38610    -3.12690     1.35822
H     -1.97378    -2.83466     2.07172
C      1.31979    -3.04195    -1.48929
C      1.15761    -4.29002    -2.28785
O      1.54921    -3.05500    -0.28745
O      1.16622    -1.93080    -2.17629
H      1.31844    -1.14282    -1.59954
H      1.70170    -5.10201    -1.81577
H      0.09339    -4.52768    -2.29572
H      1.48580    -4.12986    -3.31001
C     -2.48597    -3.13996    -2.92618
C     -3.19044    -3.64826    -4.15239
O     -1.98342    -3.85799    -2.09236
O     -2.45648    -1.80899    -2.86751
H     -2.02736    -1.53807    -2.03879
H     -2.50129    -4.27554    -4.71479
H     -4.02565    -4.27626    -3.84831
H     -3.53919    -2.82539    -4.76618
