 72
-2063.323828940122
C     -3.10788     0.50403    -2.09935
C     -3.31492     1.89898    -2.58935
O     -3.93815    -0.13225    -1.48217
O     -1.90737     0.01882    -2.39324
H     -1.78776    -0.84114    -1.95078
H     -3.00194     2.58203    -1.80270
H     -2.70382     2.07874    -3.46743
H     -4.36551     2.06369    -2.80415
C     -2.41488     1.90820     1.54717
C     -3.81165     1.60450     1.98316
O     -2.12670     2.15949     0.38709
O     -1.53371     1.87931     2.51760
H     -0.62791     2.08651     2.16049
H     -4.35690     1.18193     1.14800
H     -3.79418     0.92345     2.82560
H     -4.29608     2.53160     2.28760
C      1.08629     2.71608     0.27407
C      2.46334     3.13260    -0.13009
O      0.77344     2.47296     1.42736
O      0.22860     2.62866    -0.73116
H     -0.66628     2.42247    -0.37402
H      3.15864     2.34874     0.15669
H      2.49821     3.29557    -1.20005
H      2.73701     4.03748     0.41004
C     -4.32809    -2.08244     1.39558
C     -4.96887    -2.76542     2.55675
O     -3.12743    -2.09154     1.17022
O     -5.18769    -1.44701     0.62237
H     -4.72506    -1.01828    -0.12672
H     -6.01859    -2.50065     2.60593
H     -4.85518    -3.84162     2.43844
H     -4.44659    -2.48039     3.46606
C      3.21104    -0.58553     1.14079
C      2.23101    -0.84906     2.23346
O      3.88983     0.41308     1.05823
O      3.26053    -1.56686     0.23095
H      3.85854    -1.29139    -0.48164
H      2.65546    -0.52581     3.17888
H      1.33970    -0.25588     2.05104
H      1.94317    -1.89310     2.26760
C     -0.43480    -2.95789    -0.48431
C      0.55364    -3.16494    -1.59631
O     -0.28809    -3.32801     0.65066
O     -1.53751    -2.28850    -0.88834
H     -2.16026    -2.24567    -0.12153
H      1.48751    -3.52617    -1.18101
H      0.15732    -3.89490    -2.30319
H      0.71762    -2.23210    -2.12632
C      5.36494     0.58385    -1.76179
C      6.53507     0.51836    -0.83917
O      4.69575    -0.40385    -2.05446
O      5.09819     1.78324    -2.21274
H      4.28399     1.77808    -2.77929
H      7.03985    -0.43509    -0.95775
H      7.20665     1.35081    -1.01952
H      6.14258     0.57946     0.17530
C      2.00132     0.87583    -3.61460
C      0.58046     1.08447    -4.02714
O      2.81191     1.78590    -3.55445
O      2.30116    -0.37374    -3.30367
H      3.20838    -0.42167    -2.92030
H      0.51145     1.94181    -4.68737
H      0.17237     0.19345    -4.49457
H      0.00061     1.28008    -3.13055
C     -1.41937    -1.01364     3.90732
C     -0.56515    -0.25891     4.88137
O     -2.57961    -1.29755     4.09132
O     -0.75258    -1.32138     2.79377
H     -1.29539    -1.89178     2.22604
H     -1.04748    -0.24166     5.85285
H      0.41436    -0.72269     4.95325
H     -0.42753     0.75943     4.52326
