 32
-917.015242585038
C      1.70168    -1.16121    -1.57932
C      2.89458    -2.06755    -1.54051
O      1.76057     0.03944    -1.70869
O      0.55450    -1.83629    -1.43328
H     -0.19703    -1.22610    -1.51822
H      3.15198    -2.26050    -0.50037
H      2.66464    -3.01480    -2.02105
H      3.73500    -1.58269    -2.02690
C     -1.13935     1.22220    -1.76908
C     -0.69761     1.83147    -3.05534
O     -1.57460     0.07356    -1.69445
O     -0.98872     1.99789    -0.72807
H     -1.27743     1.55835     0.11690
H      0.35592     1.58553    -3.18039
H     -1.25990     1.40572    -3.87940
H     -0.80533     2.91011    -3.01205
C      2.33896     0.03133     2.00273
C      1.08253     0.51718     1.35132
O      2.72436    -1.10992     2.02245
O      3.04602     1.03295     2.57068
H      3.83926     0.62678     2.94019
H      0.39298    -0.31328     1.25929
H      0.61679     1.32760     1.90282
H      1.33384     0.86492     0.35505
C     -2.75241    -0.10544     1.46174
C     -3.52568    -0.52112     2.67775
O     -2.05003     0.89392     1.44840
O     -2.89190    -0.91285     0.43045
H     -2.39719    -0.56993    -0.35270
H     -4.24057     0.26028     2.92251
H     -4.03548    -1.45990     2.49868
H     -2.84119    -0.61039     3.51705
