 80
-2292.588475475792
C      4.08510    -2.97173     3.37723
C      3.91708    -3.63376     4.71362
O      4.38214    -3.58396     2.36312
O      3.87915    -1.67073     3.40923
H      3.97035    -1.28918     2.50219
H      2.93256    -3.39555     5.10983
H      4.03342    -4.70588     4.61148
H      4.65740    -3.23915     5.40617
C     -6.87127     1.66632     0.73589
C     -8.22494     1.09930     0.43087
O     -6.65966     2.86432     0.85084
O     -5.93035     0.75063     0.85023
H     -5.06872     1.15944     1.10529
H     -8.17686     0.52312    -0.49037
H     -8.52362     0.42083     1.22667
H     -8.94365     1.90354     0.33422
C     -0.34671    -2.01154    -1.69234
C     -1.45386    -1.01090    -1.68749
O      0.12335    -2.49047    -0.67231
O      0.10192    -2.30936    -2.89441
H      0.79453    -3.02145    -2.82891
H     -1.04835    -0.05129    -2.00233
H     -2.22649    -1.29227    -2.39640
H     -1.86007    -0.90791    -0.68961
C      2.88591     2.18853     0.25859
C      3.63603     2.40966     1.52941
O      3.38864     2.30688    -0.84675
O      1.62182     1.84659     0.43226
H      1.17724     1.75643    -0.44107
H      3.97264     1.44032     1.89536
H      4.50073     3.03673     1.33980
H      2.98794     2.85021     2.28083
C      2.17461    -4.83556    -1.58329
C      3.20764    -5.91655    -1.56248
O      1.96348    -4.14080    -2.56634
O      1.53186    -4.69769    -0.44522
H      0.95297    -3.89827    -0.48335
H      3.46307    -6.20656    -2.57658
H      4.09372    -5.52468    -1.06574
H      2.84486    -6.76611    -0.99130
C     -0.43891     0.33694     2.54428
C      0.65538    -0.68201     2.49490
O     -0.57774     1.15805     3.41666
O     -1.26632     0.24976     1.48859
H     -1.98196     0.90196     1.58439
H      0.93097    -0.96666     3.50650
H      0.36521    -1.54655     1.90579
H      1.52327    -0.21530     2.03211
C      1.12400     1.55239    -3.07930
C      0.41076     1.13919    -4.32019
O      0.56376     1.64983    -1.98640
O      2.40175     1.77831    -3.22973
H      2.82165     1.99336    -2.35381
H      1.03792     1.32196    -5.18751
H      0.18496     0.07527    -4.24726
H     -0.53558     1.66634    -4.38779
C     -3.41584     3.08300     1.71636
C     -2.12285     3.64226     2.20329
O     -3.59972     1.87974     1.54159
O     -4.34826     3.97372     1.48838
H     -5.22280     3.54707     1.27469
H     -2.15934     4.72611     2.22744
H     -1.90132     3.22774     3.18311
H     -1.32840     3.29653     1.54654
C      3.87796    -1.42179    -0.07793
C      3.46390    -0.84538    -1.38962
O      4.00495    -0.74397     0.93172
O      4.09944    -2.71345    -0.10369
H      4.24751    -3.05621     0.81912
H      2.54034    -0.29154    -1.24843
H      4.21223    -0.12869    -1.71752
H      3.31743    -1.63211    -2.11832
C     -2.84715     2.53919    -2.26899
C     -4.25892     2.87060    -1.89951
O     -2.51925     1.98903    -3.28988
O     -1.97531     2.90953    -1.31860
H     -1.09311     2.60132    -1.57946
H     -4.31736     3.87690    -1.49702
H     -4.90670     2.76204    -2.76258
H     -4.59524     2.19012    -1.12105
