 56
-1604.805301870211
C      3.36021     3.14284     0.54587
C      3.03391     4.51727     1.04646
O      4.05452     2.34627     1.13022
O      2.76831     2.87807    -0.63008
H      3.00407     1.97315    -0.88844
H      3.80906     4.84606     1.73154
H      2.92937     5.21136     0.21684
H      2.08855     4.47621     1.58647
C     -3.75934    -4.32093    -2.12151
C     -3.62273    -5.53222    -2.99535
O     -3.97673    -3.21095    -2.58459
O     -3.60469    -4.55587    -0.83749
H     -3.75074    -3.72594    -0.30673
H     -2.77907    -5.38398    -3.66551
H     -3.47471    -6.42126    -2.39373
H     -4.51354    -5.62758    -3.61056
C      0.70836     0.94708     2.30347
C      1.71540    -0.02324     2.83072
O      0.63341     2.10525     2.67743
O     -0.10016     0.42957     1.39690
H     -3.10012     4.07043    -0.72261
H      2.58466     0.51268     3.19723
H      1.26274    -0.57634     3.65335
H      1.98862    -0.72467     2.05062
C      0.67559    -1.65239    -0.91204
C     -0.74548    -2.09851    -1.02324
O      1.50357    -2.26786    -0.25717
O      0.95187    -0.55044    -1.57097
H      1.89733    -0.30529    -1.43853
H     -0.77612    -3.17608    -1.15965
H     -1.24924    -1.87304    -0.08677
H     -1.24199    -1.58577    -1.83856
C     -3.96073    -1.20625     0.08271
C     -3.88257     0.01191     0.94476
O     -3.91783    -2.33855     0.54264
O     -4.08433    -0.94797    -1.19937
H     -4.10955    -1.79176    -1.72220
H     -3.90499     0.91092     0.34247
H     -4.71146    -0.00489     1.64908
H     -2.96042    -0.01172     1.51856
C     -1.54973     3.53104     0.63036
C     -2.34269     4.56070    -0.12251
O     -1.70015     2.32689     0.47536
O     -0.67301     4.04879     1.46460
H     -0.18425     3.32728     1.94197
H     -0.70504     1.13010     1.04403
H     -2.80252     5.25391     0.57756
H     -1.67286     5.12886    -0.76469
C      4.30826    -0.52663    -0.42499
C      5.70929    -0.06281    -0.19853
O      3.51549     0.07775    -1.14727
O      3.98838    -1.62534     0.21120
H      3.05046    -1.90530     0.01416
H      5.66873     0.88580     0.33226
H      6.25578    -0.79835     0.38067
H      6.18781     0.10854    -1.15992
