 40
-1146.2723144284907
C      4.60776    -4.81708    -0.70392
C      4.74916    -6.30192    -0.88326
O      5.44593    -4.01127    -1.02706
O      3.43398    -4.48727    -0.14745
H      3.37972    -3.52092    -0.06277
H      3.98426    -6.83241    -0.32677
H      4.66073    -6.53528    -1.94286
H      5.74253    -6.60488    -0.56351
C      3.53959    -0.77046    -0.09631
C      4.92732    -0.95479    -0.60231
O      2.81915    -1.69407     0.26508
O      3.14505     0.48538    -0.07199
H      2.21682     0.55899     0.24131
H      5.46688    -1.61931     0.06458
H      4.88551    -1.46086    -1.56363
H      5.42369     0.00422    -0.69801
C     -2.00256     3.27914    -0.23367
C     -2.62191     4.44574    -0.92489
O     -2.61002     2.47099     0.44307
O     -0.68818     3.19408    -0.42773
H     -0.36003     2.39910     0.02495
H     -1.85458     5.12960    -1.26987
H     -3.21583     4.08527    -1.76139
H     -3.31709     4.93519    -0.24945
C     -6.08360     2.57560    -0.50138
C     -7.50439     2.10549    -0.66205
O     -5.67160     3.62495    -0.93052
O     -5.33269     1.68973     0.16916
H     -4.42055     2.02899     0.23730
H     -7.70640     1.96193    -1.72179
H     -7.66953     1.18052    -0.12076
H     -8.17463     2.88451    -0.30627
C     -0.04397    -0.07988     1.48434
C     -1.34078     0.14323     2.18732
O      0.50933     0.77439     0.80163
O      0.45475    -1.28529     1.65954
H      1.29073    -1.40536     1.15465
H     -1.51822    -0.65289     2.90134
H     -1.32121     1.11362     2.67285
H     -2.14041     0.18007     1.45257
