 48
-1375.5382069491775
C     -0.98841    -2.48348     1.99582
C     -2.03713    -2.82631     2.99737
O     -1.20615    -1.95875     0.91855
O      0.24181    -2.81481     2.37716
H      0.87165    -2.55376     1.67882
H     -2.65275    -3.62942     2.59668
H     -1.58517    -3.12025     3.93809
H     -2.68895    -1.96630     3.12791
C      2.08621    -2.29276    -0.62779
C      1.07669    -3.32762    -1.01029
O      2.27556    -1.96842     0.54272
O      2.73821    -1.76814    -1.62852
H      3.39727    -1.08310    -1.32432
H      1.25473    -3.69343    -2.01662
H      1.11040    -4.13899    -0.28952
H      0.08484    -2.88268    -0.94698
C      0.03301     2.14569    -0.67494
C      0.70222     0.80539    -0.70619
O     -1.17892     2.27675    -0.60267
O      0.87570     3.15231    -0.73327
H      0.39126     4.01931    -0.70704
H      1.28214     0.71495    -1.61922
H      1.38599     0.72944     0.13178
H     -0.04628     0.02528    -0.65585
C     -1.65698     5.58225    -0.59537
C     -2.32783     6.92489    -0.55810
O     -0.44134     5.47156    -0.65830
O     -2.48872     4.56738    -0.55338
H     -2.00035     3.69927    -0.57505
H     -1.96848     7.47324     0.30935
H     -2.03754     7.48784    -1.44168
H     -3.40431     6.80901    -0.51557
C      4.69555     0.40850     0.27819
C      5.69798     1.46080     0.63761
O      4.39976     0.13270    -0.87462
O      4.15467    -0.18463     1.32380
H      3.49657    -0.86042     1.04258
H      5.21833     2.22429     1.24618
H      6.49350     1.01793     1.23270
H      6.10287     1.90208    -0.26449
C     -4.23376    -3.43897    -0.29329
C     -5.39434    -3.70777    -1.21381
O     -4.03061    -4.02230     0.74329
O     -3.44678    -2.46533    -0.77219
H     -2.71723    -2.30377    -0.14594
H     -5.99000    -2.80378    -1.32560
H     -5.02524    -3.98257    -2.19996
H     -6.00034    -4.50669    -0.80310
