 64
-1834.0651986691041
C     -2.72544    -0.31603    -0.65117
C     -3.30912    -1.01750    -1.83491
O     -2.23299    -0.90764     0.29467
O     -2.75988     0.99893    -0.74282
H     -2.44292     1.40509     0.10554
H     -4.28624    -0.60172    -2.06898
H     -2.65776    -0.85678    -2.69116
H     -3.38073    -2.07994    -1.63150
C      2.25885     1.51241     2.63150
C      2.83414     2.55865     3.52430
O      2.22424     1.61929     1.40808
O      1.76268     0.46971     3.25510
H      1.50312    -0.22495     2.60683
H      2.09335     3.35312     3.61559
H      3.05533     2.14119     4.50037
H      3.72006     2.98342     3.06190
C      1.54218    -2.50938    -4.78359
C      2.06950    -3.76628    -5.41385
O      2.26929    -1.62996    -4.34358
O      0.22950    -2.45093    -4.74034
H     -0.06706    -1.60977    -4.30360
H      3.15195    -3.73520    -5.44893
H      1.73854    -4.62308    -4.83055
H      1.65939    -3.87164    -6.41541
C      1.25544    -1.21984     0.11804
C      0.92978    -2.34490    -0.79629
O      1.24651    -1.29714     1.33954
O      1.55980    -0.09835    -0.50021
H      1.82434     0.58922     0.15658
H     -0.14398    -2.52119    -0.75303
H      1.23403    -2.07854    -1.80276
H      1.41490    -3.25674    -0.45997
C     -1.75281     1.32850     2.62273
C     -1.51850     1.99347     3.94109
O     -2.01298     1.94033     1.59566
O     -1.64258     0.02320     2.67002
H     -1.83059    -0.36928     1.78393
H     -1.27736     3.03924     3.78614
H     -2.42292     1.90711     4.54452
H     -0.70851     1.47895     4.44896
C     -0.77315    -4.11732     2.27772
C     -1.75010    -4.93074     3.08140
O     -0.50396    -4.31611     1.11822
O     -0.23416    -3.12903     3.00372
H      0.33391    -2.60581     2.41950
H     -1.27494    -5.29243     3.99144
H     -2.58930    -4.30027     3.37239
H     -2.10533    -5.76462     2.48630
C      0.12114     4.37935     1.21057
C     -0.98417     5.27727     0.74340
O      0.39716     4.17985     2.36955
O      0.76580     3.79614     0.19393
H      1.38324     3.14907     0.56666
H     -1.21321     5.99838     1.52146
H     -0.70887     5.77308    -0.18352
H     -1.86971     4.66848     0.56048
C      0.23126     0.75334    -3.32447
C     -0.30273     1.99377    -2.68962
O     -0.46913    -0.23514    -3.51584
O      1.50097     0.80084    -3.64292
H      1.80662    -0.09099    -3.95107
H     -1.33131     2.17013    -2.98792
H     -0.29996     1.81433    -1.61656
H      0.32764     2.84953    -2.90312
