 40
-1146.2783428939108
C      0.39762    -1.16900    -1.01802
C     -0.75292    -1.93424    -1.58353
O      0.80214    -1.32865     0.12548
O      0.92512    -0.30135    -1.85822
H      1.67244     0.18123    -1.43998
H     -0.63695    -2.98211    -1.32450
H     -1.66843    -1.57918    -1.11808
H     -0.79994    -1.79852    -2.65827
C      3.39878     0.88207     0.44853
C      4.48310     1.67890     1.09413
O      3.04642     1.05126    -0.71480
O      2.84710    -0.01003     1.23601
H      2.10209    -0.48893     0.78587
H      4.14521     2.70615     1.20443
H      4.73933     1.25508     2.05883
H      5.34441     1.71014     0.43316
C      5.08453     3.84283    -2.00072
C      5.71809     4.68168    -3.07473
O      5.06666     4.11825    -0.82645
O      4.54036     2.72809    -2.50993
H      4.11139     2.22654    -1.79471
H      6.48918     4.10590    -3.58330
H      4.97082     4.95666    -3.81679
H      6.14836     5.57187    -2.63081
C     -6.24273    -1.55845     0.70027
C     -7.65143    -1.43460     0.19842
O     -5.98841    -2.00505     1.80860
O     -5.32873    -1.14796    -0.15247
H     -4.41893    -1.24402     0.23338
H     -8.20196    -0.77064     0.86033
H     -7.66060    -1.05208    -0.81548
H     -8.12913    -2.40981     0.24521
C     -2.63518    -1.84318     2.00151
C     -1.23037    -1.95535     2.49806
O     -2.90203    -1.40684     0.88788
O     -3.54487    -2.25223     2.85410
H     -4.45721    -2.15909     2.46954
H     -1.22089    -2.31516     3.52053
H     -0.68085    -2.62502     1.84245
H     -0.74519    -0.98710     2.41812
