 80
-2292.587657767118
C      3.50930    -0.70218     5.78625
C      4.01718    -0.37027     7.16068
O      3.31282    -1.84930     5.41419
O      3.29220     0.35657     5.03707
H      2.98948     0.09258     4.12861
H      4.96890     0.14962     7.07867
H      3.31840     0.30009     7.65532
H      4.13713    -1.28110     7.73437
C     -3.15439     4.96264     1.20598
C     -2.88680     6.43751     1.22388
O     -4.09551     4.47222     0.60149
O     -2.28789     4.25333     1.90270
H     -2.51634     3.29541     1.86475
H     -3.68608     6.92915     1.77338
H     -1.93126     6.64341     1.69264
H     -2.90752     6.81560     0.20562
C     -0.16176    -2.88537    -3.04966
C     -1.64605    -2.86853    -3.20821
O      0.59883    -3.16016    -3.96535
O      0.24788    -2.55988    -1.83849
H      1.22737    -2.65699    -1.74947
H     -2.11780    -3.26852    -2.31616
H     -1.98396    -1.83651    -3.31082
H     -1.92387    -3.43189    -4.09159
C      0.83667     1.18362    -0.33722
C      0.79618     1.64677     1.07973
O      1.84372     1.17902    -1.02605
O     -0.33074     0.75695    -0.78809
H     -0.25612     0.49878    -1.73078
H     -0.01869     2.35175     1.21551
H      0.62022     0.77684     1.70432
H      1.74848     2.08139     1.36424
C      3.64412    -2.74392    -2.79401
C      5.04850    -2.22685    -2.72589
O      2.91486    -2.84848    -1.82369
O      3.26539    -3.06034    -4.01947
H      2.29792    -3.24463    -4.02017
H      5.69612    -2.81323    -3.37175
H      5.05076    -1.19749    -3.08115
H      5.39733    -2.25197    -1.69954
C     -1.05934    -0.92899     3.64780
C     -0.34818    -1.51211     4.82981
O     -0.87908    -1.28942     2.50655
O     -1.90066     0.05455     3.97716
H     -2.27022     0.44072     3.16607
H     -0.13139    -2.55634     4.63838
H      0.60224    -0.99679     4.94872
H     -0.92155    -1.39391     5.74363
C      1.14323     0.06380    -4.00214
C      1.27393    -0.27748    -5.45136
O      0.06955     0.30391    -3.46380
O      2.27394     0.08111    -3.34493
H      2.14504     0.47442    -2.43561
H      1.51354    -1.33452    -5.53538
H      0.33857    -0.07519    -5.95963
H      2.08215     0.29641    -5.89672
C     -3.59602     1.15516     0.84163
C     -3.56345    -0.28089     0.45278
O     -2.88822     1.62922     1.72773
O     -4.43753     1.88725     0.14830
H     -4.33864     2.85696     0.35679
H     -3.03217    -0.85246     1.20435
H     -4.57652    -0.65116     0.31010
H     -3.04750    -0.35974    -0.50368
C      2.31349    -1.52539     2.24579
C      1.79762    -1.81168     0.87716
O      2.47180    -0.38362     2.66386
O      2.57146    -2.58923     2.96985
H      2.89767    -2.32666     3.86823
H      2.34041    -1.21173     0.15675
H      1.88636    -2.86346     0.63108
H      0.75613    -1.50607     0.85054
C     -3.47004     0.92704    -3.32232
C     -4.79156     1.62213    -3.46872
O     -3.30956    -0.11372    -2.73053
O     -2.47591     1.59782    -3.91847
H     -1.64077     1.12677    -3.77235
H     -4.91820     2.30284    -2.62961
H     -4.81547     2.19348    -4.39168
H     -5.58902     0.88717    -3.43991
