 32
-917.0166561836119
C      1.20406    -3.34894     2.05977
C      2.31003    -4.36221     1.95609
O      0.45042    -3.23733     2.99399
O      1.15711    -2.56124     0.97241
H      0.40775    -1.94846     1.06283
H      2.32835    -4.97022     2.85322
H      2.15095    -4.99094     1.08198
H      3.26385    -3.85411     1.82711
C     -1.30332     0.02181     1.82998
C     -1.18800    -0.53156     3.21209
O     -0.96399    -0.61615     0.83528
O     -1.78861     1.23409     1.76505
H     -1.85355     1.55342     0.81829
H     -1.68303    -1.49779     3.25028
H     -0.13984    -0.71892     3.43059
H     -1.61581     0.15772     3.93152
C      1.77400     1.87882    -2.08835
C      1.60861     1.43439    -0.66653
O      0.90353     2.32282    -2.79351
O      3.03843     1.72464    -2.52991
H      3.04840     2.02752    -3.44632
H      0.67769     1.82987    -0.28056
H      1.56266     0.34728    -0.63169
H      2.44024     1.75114    -0.04472
C     -1.96668     1.42637    -1.71238
C     -2.30598     1.96887    -3.05587
O     -1.94382     2.09693    -0.69143
O     -1.67243     0.13878    -1.72233
H     -1.46573    -0.16055    -0.81141
H     -2.90646     2.86617    -2.95183
H     -1.37194     2.22105    -3.55469
H     -2.82038     1.21170    -3.63903
