 64
-1834.0646803937261
C     -3.15029    -0.57236    -1.05305
C     -2.64002     0.61741    -1.79296
O     -3.76300    -0.47990    -0.00286
O     -2.86701    -1.72610    -1.62627
H     -3.14945    -2.47552    -1.04759
H     -3.26880     1.47659    -1.58929
H     -1.63511     0.82203    -1.43764
H     -2.58505     0.40863    -2.85516
C      2.80014     2.99034     1.76381
C      2.46194     4.09972     2.69663
O      2.83399     3.12105     0.54370
O      3.04472     1.84520     2.34766
H      3.26559     1.15015     1.67436
H      2.73610     5.05416     2.26001
H      1.38175     4.07605     2.84092
H      2.95068     3.94505     3.65198
C      0.71438    -1.28467    -2.87352
C     -0.13116    -2.40236    -3.40095
O      1.76692    -1.41697    -2.30037
O      0.16214    -0.07887    -3.10563
H      0.70312     0.58811    -2.65801
H      0.14174    -2.59798    -4.43849
H      0.05016    -3.29592    -2.81337
H     -1.17691    -2.12467    -3.35577
C      3.99151     0.10512    -0.64816
C      4.78385    -0.97234    -1.30284
O      3.61930     0.07081     0.51318
O      3.71635     1.12407    -1.44644
H      3.11305     1.73296    -0.98653
H      5.22013    -1.62178    -0.55187
H      4.11158    -1.55119    -1.93338
H      5.54893    -0.52770    -1.93245
C     -4.03947    -3.59522     1.10698
C     -4.23726    -4.72331     2.06808
O     -3.41770    -3.72682     0.05412
O     -4.57960    -2.47064     1.48521
H     -4.30761    -1.71471     0.89656
H     -5.23832    -4.68802     2.48558
H     -4.04806    -5.66860     1.57370
H     -3.52622    -4.59180     2.88159
C     -0.77899     1.79935     1.92113
C     -1.78875     1.14277     2.81309
O     -0.42149     2.95021     1.98358
O     -0.28865     0.94868     1.00737
H      0.30077     1.43141     0.41075
H     -2.69592     0.94053     2.24701
H     -1.39825     0.19359     3.16971
H     -2.01770     1.80289     3.64452
C      0.56965     3.34649    -1.67032
C     -0.42336     3.78436    -2.70697
O      0.81981     2.17314    -1.42414
O      1.15569     4.34930    -1.05821
H      1.81075     4.00287    -0.40867
H      0.10864     3.99915    -3.63193
H     -1.13590     2.99417    -2.89562
H     -0.92853     4.69071    -2.38741
C     -0.25481    -2.79362     1.24152
C      1.18632    -2.40841     1.37517
O     -1.11072    -2.57420     2.06256
O     -0.49834    -3.42487     0.07751
H     -1.44807    -3.62057     0.04812
H      1.30247    -1.71537     2.20084
H      1.78420    -3.30084     1.56173
H      1.53649    -1.95440     0.45355
