 48
-1375.5420122289447
C     -1.73019     0.60725     0.03748
C     -2.87387     1.54173    -0.22446
O     -1.02981     0.13091    -0.82214
O     -1.55621     0.37048     1.34562
H     -0.76370    -0.17808     1.45133
H     -2.48415     2.55436    -0.31746
H     -3.35123     1.27635    -1.16381
H     -3.59139     1.51096     0.59020
C      0.77108    -2.41249    -1.53579
C     -0.12788    -2.84025    -2.64367
O      0.58637    -2.72795    -0.36067
O      1.77493    -1.65841    -1.90950
H      2.28684    -1.34664    -1.11750
H      0.27994    -2.53911    -3.60242
H     -0.28009    -3.91401    -2.59468
H     -1.10193    -2.37884    -2.48562
C      0.91890     2.58398    -1.12606
C      1.41558     1.73387    -2.24622
O      1.34652     2.50867     0.01785
O     -0.03298     3.41850    -1.47882
H     -0.32977     3.94502    -0.69483
H      2.29792     1.19343    -1.92512
H      0.63463     1.02391    -2.50143
H      1.63126     2.34952    -3.11711
C     -0.19594     4.85689     1.72703
C     -0.59033     5.81619     2.81230
O     -0.84753     4.72229     0.70162
O      0.89496     4.16865     1.99088
H      1.08448     3.53781     1.24652
H      0.25715     6.02847     3.45467
H     -0.98235     6.72645     2.36888
H     -1.38381     5.36107     3.40207
C      2.33367    -0.38284     1.22640
C      2.82232     0.57327     2.26403
O      2.96506    -0.67364     0.22706
O      1.13205    -0.89490     1.47277
H      0.95443    -1.63456     0.83611
H      2.59248     0.20278     3.25935
H      3.89136     0.71579     2.14893
H      2.31170     1.52474     2.12196
C     -2.05617    -5.28555    -0.40539
C     -2.77105    -6.50202     0.11603
O     -2.44033    -4.59537    -1.31644
O     -0.91930    -5.06111     0.26987
H     -0.49467    -4.25523    -0.07667
H     -3.66870    -6.66974    -0.46749
H     -2.11532    -7.36840     0.05585
H     -3.02739    -6.35626     1.16368
