 56
-1604.8035427547186
C     -0.56883     1.11652    -3.26190
C     -1.29848     0.32262    -4.29949
O      0.60499     1.39134    -3.30221
O     -1.37307     1.47059    -2.24406
H     -0.84147     1.97775    -1.60965
H     -0.77919     0.38266    -5.24895
H     -1.31621    -0.71977    -3.99040
H     -2.32606     0.65606    -4.39073
C      1.83383    -0.74885     0.96356
C      1.55883    -0.88954    -0.50408
O      2.92310    -0.58835     1.44993
O      0.69856    -0.80815     1.69320
H      0.94313    -0.81088     2.64092
H      0.71492    -0.26493    -0.77824
H      2.43506    -0.59613    -1.06909
H      1.28983    -1.91372    -0.74743
C      1.36308     3.00872    -0.08527
C      2.06080     3.46942    -1.31733
O      0.20398     2.59439    -0.08680
O      2.07920     3.06195     1.00818
H     -0.97289     1.82148     5.08847
H      3.05996     3.81368    -1.07593
H      2.09194     2.65016    -2.03176
H      1.47762     4.26280    -1.77887
C     -2.09636    -3.61092    -4.27720
C     -2.02480    -4.51133    -5.47631
O     -3.06162    -2.89694    -4.04457
O     -1.02360    -3.65848    -3.51932
H     -1.11498    -3.06369    -2.72875
H     -1.16379    -4.23814    -6.08197
H     -1.88556    -5.53978    -5.15142
H     -2.93560    -4.41988    -6.05522
C     -2.34478    -1.54246    -1.08475
C     -2.49351    -0.88772     0.25050
O     -1.30144    -2.06480    -1.45296
O     -3.42619    -1.49557    -1.82679
H     -3.30610    -2.02140    -2.66066
H     -3.23751    -1.41996     0.84131
H     -1.53739    -0.89193     0.75637
H     -2.83481     0.13394     0.11461
C     -0.61713     1.85164     2.99689
C     -1.30303     1.29111     4.20028
O      0.53517     2.27424     3.03182
O     -1.33356     1.84683     1.90306
H     -0.78217     2.13511     1.13373
H      1.55186     2.75358     1.78091
H     -2.38211     1.35085     4.09351
H     -1.01098     0.24685     4.30156
C      2.63265    -0.13485     4.58369
C      3.87141    -0.84311     5.03019
O      1.58598    -0.69153     4.30939
O      2.79220     1.18042     4.50912
H      2.00383     1.57059     4.10091
H      4.48553    -0.17732     5.62593
H      3.60516    -1.73954     5.58038
H      4.42506    -1.13479     4.13886
