 56
-1604.8054133308378
C     -0.18634     0.17205    -2.60282
C     -1.05586    -0.41395    -3.67077
O      1.01383     0.27802    -2.68122
O     -0.88506     0.54741    -1.52292
H     -0.28219     0.99518    -0.90548
H     -0.56534    -0.33287    -4.63428
H     -1.20749    -1.46952    -3.46245
H     -2.02837     0.06441    -3.68829
C      1.89647    -1.23928     0.67673
C      1.94545    -2.35328    -0.32008
O      2.83637    -0.52474     0.93962
O      0.69379    -1.09205     1.23443
H      0.75776    -0.39604     1.91784
H      2.10894    -1.91656    -1.30388
H      2.79210    -2.99964    -0.09114
H      1.01921    -2.91769    -0.31253
C      1.96974     2.47180     0.19446
C      3.00624     2.07613    -0.79273
O      0.77905     2.19901     0.11558
O      2.45608     3.17331     1.20496
H     -2.91745     4.37230     2.92817
H      2.53351     1.65371    -1.66963
H      3.60703     2.94858    -1.04088
H      3.64838     1.33322    -0.32587
C     -2.27875    -4.29017    -3.97431
C     -2.15833    -5.14368    -5.20392
O     -3.18489    -3.48550    -3.81541
O     -1.31553    -4.48896    -3.10232
H     -1.43853    -3.91578    -2.29851
H     -2.21542    -6.19281    -4.92270
H     -2.95388    -4.89866    -5.89677
H     -1.18790    -4.97877    -5.66587
C     -2.59917    -2.17727    -0.79817
C     -2.69334    -1.34847     0.43910
O     -1.67308    -2.94779    -1.01061
O     -3.59208    -1.99734    -1.64122
H     -3.48227    -2.58091    -2.43554
H     -2.96543    -0.33101     0.17344
H     -3.47750    -1.75822     1.07650
H     -1.74084    -1.37052     0.95300
C     -0.88230     3.78779     2.67030
C     -1.97328     4.45103     3.45294
O      0.29685     3.86130     2.98673
O     -1.30904     3.11561     1.62277
H     -0.55637     2.72168     1.12745
H      1.74296     3.43215     1.82139
H     -2.04504     3.96662     4.42448
H     -1.70760     5.49005     3.62478
C      2.10940     1.04967     3.83761
C      3.33430     0.21119     4.01110
O      1.11556     0.71658     3.22151
O      2.20422     2.23163     4.44303
H      1.41924     2.75587     4.21953
H      4.07026     0.73980     4.60709
H      3.05893    -0.72549     4.49244
H      3.73244    -0.03512     3.02916
