 64
-1834.0720226833703
C     -2.63208    -1.80304    -0.91306
C     -2.57877    -0.78775    -2.01120
O     -3.60086    -2.51117    -0.69856
O     -1.52045    -1.86202    -0.19668
H     -1.60481    -2.53253     0.52483
H     -2.49878     0.20536    -1.57307
H     -1.69516    -0.95188    -2.62096
H     -3.47743    -0.85413    -2.61551
C      0.04596     3.02833    -2.11687
C     -0.71599     4.29695    -1.90606
O     -0.34178     2.12781    -2.84045
O      1.16691     2.97799    -1.42792
H      1.67152     2.15804    -1.65252
H     -0.11903     5.14286    -2.23811
H     -1.65478     4.26355    -2.44494
H     -0.89978     4.41811    -0.84305
C      2.08299    -3.32613     0.71039
C      1.13291    -4.47411     0.58265
O      3.13294    -3.26301     0.08719
O      1.66888    -2.40092     1.54667
H      2.27992    -1.62118     1.54663
H      0.65545    -4.66573     1.53657
H      0.35136    -4.19099    -0.11918
H      1.65738    -5.34667     0.20947
C      2.05889    -0.13706    -2.82663
C      2.86011    -1.37044    -3.10400
O      2.45981     0.76022    -2.09962
O      0.88480    -0.12437    -3.42200
H      0.40448     0.72217    -3.22356
H      2.76791    -1.64863    -4.15069
H      3.89248    -1.18905    -2.83437
H      2.47164    -2.18409    -2.49613
C     -2.82722    -4.22971     2.04644
C     -2.94835    -5.10182     3.26237
O     -1.77949    -3.68331     1.72729
O     -3.94493    -4.11693     1.36936
H     -3.82452    -3.51483     0.58435
H     -1.97337    -5.22701     3.71739
H     -3.63170    -4.63713     3.96917
H     -3.36512    -6.06495     2.98030
C     -2.73219     4.76646     1.53177
C     -3.68024     5.87612     1.88534
O     -1.51811     4.90124     1.60506
O     -3.31802     3.66205     1.12876
H     -2.64102     2.96891     0.90312
H     -4.70608     5.53546     1.80949
H     -3.46404     6.22178     2.89305
H     -3.50808     6.71110     1.21012
C     -0.38369     1.84030     1.12730
C      0.41404     0.58222     1.17077
O     -1.45719     1.91114     0.54078
O      0.16356     2.85911     1.74538
H     -0.43559     3.64606     1.70611
H      1.12692     0.62085     0.35365
H      0.97509     0.49068     2.09427
H     -0.24648    -0.25949     1.02792
C      4.32930    -0.23849     0.61615
C      5.05636     1.05391     0.41259
O      3.39481    -0.36978     1.38940
O      4.78468    -1.21668    -0.13962
H      4.23099    -2.02574     0.00072
H      4.77615     1.76036     1.18577
H      6.12869     0.87980     0.41054
H      4.77056     1.44831    -0.56037
