 48
-1375.5438799018693
C     -0.26186     0.81192     1.46714
C     -0.65044     2.18509     1.91680
O     -1.00887     0.07628     0.85125
O      0.96874     0.47151     1.80563
H      1.17190    -0.42644     1.47159
H     -0.26016     2.91626     1.21353
H     -1.73084     2.25654     1.91356
H     -0.24864     2.40247     2.90196
C      1.56989    -2.99879     1.51089
C      0.61529    -2.91895     2.65237
O      1.90854    -2.01136     0.85819
O      2.00060    -4.20188     1.24579
H      2.56279    -4.21994     0.42302
H      0.69420    -1.95104     3.13164
H     -0.38512    -3.02734     2.23155
H      0.80228    -3.72179     3.35834
C     -1.98030     5.69350     1.17055
C     -1.75272     6.86430     2.08039
O     -1.18767     5.39994     0.28624
O     -3.07866     5.01797     1.41841
H     -3.20624     4.28610     0.75344
H     -2.54092     6.92485     2.82131
H     -0.78266     6.75617     2.55870
H     -1.72110     7.77234     1.48323
C     -2.58587     2.74701    -1.19315
C     -2.82847     1.59778    -2.11894
O     -3.36647     3.05963    -0.30545
O     -1.45091     3.37699    -1.41013
H     -1.35358     4.14828    -0.79287
H     -2.16100     0.78044    -1.85252
H     -3.85710     1.26706    -2.02829
H     -2.60674     1.88915    -3.14241
C      3.80476    -3.36932    -1.64018
C      4.65026    -3.48188    -2.87468
O      3.47458    -4.33256    -0.96796
O      3.46230    -2.12817    -1.35492
H      2.89800    -2.09463    -0.54803
H      5.58516    -2.94803    -2.71881
H      4.84818    -4.52543    -3.08625
H      4.13891    -3.01412    -3.71263
C     -1.18431    -2.84460    -0.99840
C     -1.21062    -3.73539    -2.21371
O     -1.24097    -3.24678     0.13698
O     -1.07134    -1.55478    -1.32876
H     -1.05955    -1.00475    -0.51908
H     -1.40955    -4.75744    -1.90875
H     -1.97391    -3.39701    -2.91212
H     -0.24643    -3.68429    -2.71879
