 48
-1375.5406619494147
C      5.43329     1.58758     0.64951
C      6.59617     2.41205     1.12481
O      4.56752     1.97102    -0.09639
O      5.47511     0.34116     1.15111
H      4.68948    -0.14726     0.84671
H      7.52975     1.91895     0.86046
H      6.54981     3.39574     0.67246
H      6.56738     2.49762     2.20969
C      3.15720    -1.56899    -0.70182
C      4.33836    -1.38551    -1.60034
O      3.21528    -1.31401     0.50013
O      2.07480    -1.99328    -1.29258
H      1.30473    -2.04656    -0.65589
H      4.43091    -0.32025    -1.80900
H      5.23534    -1.69796    -1.07471
H      4.21237    -1.93518    -2.52726
C     -4.35580     1.90446    -0.52374
C     -5.81560     2.13458    -0.74619
O     -3.49740     2.29085    -1.30112
O     -4.08511     1.21392     0.56377
H     -3.10649     1.16364     0.70390
H     -5.95686     3.01221    -1.36784
H     -6.21129     1.26432    -1.26549
H     -6.32893     2.23764     0.20407
C     -0.60688     1.63659     0.14543
C      0.85399     1.51784     0.43308
O     -1.45888     1.18815     0.90285
O     -0.88975     2.22079    -0.99145
H     -1.87497     2.27248    -1.12149
H      1.42524     2.33350     0.00771
H      1.00732     1.44150     1.50187
H      1.20132     0.59493    -0.02477
C      0.08420    -1.92139     1.57296
C     -1.13570    -2.05354     2.42021
O      0.07804    -2.08991     0.36233
O      1.16278    -1.56925     2.24009
H      1.93515    -1.51177     1.63011
H     -0.87601    -2.49225     3.38016
H     -1.53083    -1.05421     2.59030
H     -1.87960    -2.64564     1.90162
C     -4.00668    -1.54344    -1.25768
C     -2.69712    -1.28117    -1.93970
O     -5.09777    -1.31601    -1.71216
O     -3.84303    -2.05281    -0.01566
H     -4.72500    -2.11104     0.37176
H     -1.93711    -1.99744    -1.64178
H     -2.84155    -1.29796    -3.01554
H     -2.35766    -0.28570    -1.66112
