 48
-1375.5464997962156
C     -4.06294    -3.60401     2.48567
C     -4.78034    -4.63448     3.30769
O     -4.31864    -3.42608     1.30456
O     -3.15221    -2.92409     3.14880
H     -2.69723    -2.27199     2.55501
H     -4.70267    -5.59860     2.81201
H     -4.36335    -4.68216     4.30682
H     -5.83566    -4.37511     3.35033
C      1.89567    -1.62448     0.51818
C      1.08640    -2.34935     1.55019
O      3.01802    -1.20302     0.75368
O      1.28514    -1.46527    -0.63766
H      1.88836    -1.01910    -1.29825
H      1.74371    -2.97264     2.14985
H      0.61267    -1.61869     2.20265
H      0.30661    -2.93627     1.07880
C      1.74789     2.74103     0.56645
C      2.74315     2.41332     1.63319
O      1.95633     2.50968    -0.61666
O      0.63735     3.28472     1.00757
H      0.02629     3.47444     0.24623
H      2.57121     3.01848     2.51795
H      2.64040     1.36101     1.88975
H      3.74367     2.56359     1.24214
C     -0.88335     2.99150    -2.12343
C     -1.93046     3.12919    -3.18873
O     -0.94016     3.62409    -1.08055
O      0.08127     2.14226    -2.40327
H      0.80808     2.22069    -1.73222
H     -1.65824     2.56414    -4.07316
H     -2.88239     2.77462    -2.80032
H     -2.05599     4.18168    -3.42994
C      3.87001     0.37288    -2.03171
C      4.50754     1.34657    -2.97042
O      2.89558    -0.30026    -2.33036
O      4.44715     0.32844    -0.84955
H      3.94729    -0.28203    -0.25028
H      4.27413     1.07678    -3.99445
H      4.09218     2.33035    -2.75792
H      5.57976     1.37861    -2.80325
C     -2.37813    -0.82394     0.47402
C     -1.79184     0.33387    -0.26994
O     -1.92512    -1.20689     1.54493
O     -3.39715    -1.38458    -0.13005
H     -3.74417    -2.15325     0.39817
H     -2.57071     1.04335    -0.53009
H     -1.04916     0.80946     0.35664
H     -1.33534    -0.02503    -1.18769
