 32
-917.0190362887757
C     -1.65750    -5.22882     0.23857
C     -2.48166    -6.44463    -0.08534
O     -0.57099    -5.24200     0.75810
O     -2.29914    -4.09953    -0.11564
H     -1.72848    -3.33844     0.08113
H     -2.70625    -6.46281    -1.15009
H     -1.93720    -7.33751     0.19836
H     -3.42857    -6.39598     0.44943
C     -0.49954    -1.17333     1.38666
C     -0.80507    -2.12186     2.49581
O      0.04283    -0.09737     1.55476
O     -0.86691    -1.61048     0.19368
H     -0.62455    -0.94700    -0.51070
H     -1.84391    -2.43564     2.42613
H     -0.19297    -3.01255     2.37268
H     -0.60690    -1.65411     3.45417
C      2.74350     4.81624    -0.46880
C      3.50069     6.01178     0.04081
O      2.55692     4.55793    -1.63105
O      2.29123     4.05657     0.54417
H      1.81573     3.29415     0.17392
H      2.85746     6.60170     0.69020
H      4.35088     5.67934     0.63281
H      3.83897     6.60938    -0.79700
C      0.43260     1.19694    -1.46408
C      0.82747     2.07918    -2.59470
O     -0.19822     0.16542    -1.61259
O      0.82575     1.62579    -0.27348
H      0.53828     0.98814     0.43470
H      0.47636     3.08995    -2.41074
H      1.91139     2.13549    -2.64878
H      0.42049     1.68909    -3.52044
