 64
-1834.0621298820581
C     -1.58171     0.09554     0.10851
C     -0.29262    -0.62151    -0.07806
O     -1.66052     1.32050     0.02075
O     -2.61788    -0.65391     0.37280
H     -3.43307    -0.09401     0.51436
H      0.04990    -0.48546    -1.10525
H      0.45322    -0.15902     0.55690
H     -0.40510    -1.66549     0.17474
C      2.79900     1.16430     2.12059
C      2.84258     2.55416     2.64728
O      2.04929     0.30518     2.58176
O      3.61297     0.91568     1.12385
H      3.44841     0.00669     0.76301
H      1.87622     3.02151     2.46087
H      2.97105     2.52735     3.72661
H      3.63868     3.11626     2.17269
C      2.15476    -1.33493    -3.29634
C      1.96732    -0.71227    -4.63872
O      1.44295    -2.20189    -2.83018
O      3.19146    -0.82905    -2.62853
H      3.18154    -1.18764    -1.72708
H      1.49818     0.25953    -4.49353
H      2.93022    -0.55738    -5.11840
H      1.32113    -1.33068    -5.25181
C      2.41510    -2.36058     0.70601
C      2.36085    -3.73349     0.13003
O      3.04276    -1.44311     0.17621
O      1.75797    -2.20630     1.82666
H      1.85670    -1.28337     2.16716
H      2.24348    -3.66234    -0.94678
H      3.30195    -4.23856     0.35056
H      1.53461    -4.28546     0.56130
C      1.49413     2.01448    -1.53461
C      2.83708     2.66740    -1.70070
O      0.91783     1.42201    -2.41626
O      0.99663     2.15430    -0.29935
H      0.06170     1.87197    -0.28968
H      2.71212     3.59975    -2.25220
H      3.28563     2.87213    -0.73520
H      3.47271     2.00319    -2.27806
C     -4.89773     1.93475     0.17546
C     -6.25433     2.56523     0.08179
O     -4.71388     0.85687     0.72598
O     -3.93268     2.63701    -0.37644
H     -3.07012     2.16845    -0.28498
H     -6.17756     3.57059    -0.31597
H     -6.88081     1.95463    -0.56465
H     -6.71154     2.57259     1.06733
C     -1.06674     2.06807     3.33162
C     -2.54795     2.28255     3.41170
O     -0.23624     2.93859     3.39678
O     -0.76494     0.76882     3.15484
H      0.19874     0.68965     3.10555
H     -2.76583     3.32976     3.58860
H     -2.99633     1.96766     2.47379
H     -2.97829     1.66993     4.20042
C     -1.47670    -3.57442    -1.59338
C     -2.90514    -4.02394    -1.45825
O     -0.64149    -3.70881    -0.73132
O     -1.24182    -2.98681    -2.77017
H     -0.31364    -2.69043    -2.79832
H     -3.44705    -3.27042    -0.88627
H     -3.36599    -4.13091    -2.43508
H     -2.94152    -4.95863    -0.90564
