 48
-1375.5451487082012
C     -1.07055    -2.77975     2.26234
C     -1.82658    -2.90807     3.54411
O     -1.38686    -3.32291     1.22052
O     -0.01142    -1.98109     2.35527
H      0.43843    -1.95850     1.49492
H     -2.69147    -2.24824     3.48864
H     -2.18127    -3.92914     3.65696
H     -1.20001    -2.61711     4.38024
C      1.51913    -2.30922    -1.19306
C      0.95366    -3.65513    -1.50679
O      1.53643    -1.85185    -0.05262
O      2.00949    -1.66146    -2.21742
H      2.33912    -0.76978    -1.92984
H      0.00663    -3.77783    -0.99116
H      0.83841    -3.77343    -2.57830
H      1.63948    -4.41051    -1.12646
C     -0.65974     2.05009     1.07320
C     -0.97272     1.58186     2.45504
O     -1.28500     1.69341     0.08577
O      0.35829     2.88518     1.00613
H      0.48160     3.17505     0.06353
H     -1.72690     2.24509     2.87767
H     -1.39594     0.58517     2.40324
H     -0.08235     1.60642     3.07497
C      0.48628     2.75308    -2.45185
C      1.17058     2.83803    -3.77883
O      0.74633     3.50682    -1.52492
O     -0.38915     1.77852    -2.37721
H     -0.77405     1.73603    -1.46301
H      0.46368     2.63512    -4.57767
H      1.62753     3.81481    -3.89689
H      1.94324     2.07129    -3.80365
C      3.11983     1.03363    -0.22584
C      3.82757     2.31226     0.06784
O      2.79369     0.69792    -1.35435
O      2.86512     0.30592     0.84075
H      2.39552    -0.51526     0.56981
H      3.07892     3.09929     0.13761
H      4.35948     2.24367     1.01055
H      4.50290     2.55596    -0.74622
C     -3.56740    -0.77805     0.53190
C     -4.47921     0.18833    -0.16398
O     -3.23455    -0.67224     1.68953
O     -3.15503    -1.75499    -0.28058
H     -2.54091    -2.34630     0.19674
H     -4.99158    -0.29976    -0.98695
H     -5.18328     0.59873     0.55380
H     -3.87354     1.00274    -0.55780
