 32
-917.0141062966821
C      0.83198    -2.44646    -3.30248
C      2.10828    -3.12426    -3.71596
O     -0.18395    -2.46269    -3.95238
O      0.95040    -1.82113    -2.12216
H      0.10659    -1.39720    -1.89059
H      1.93660    -4.19816    -3.75547
H      2.36863    -2.80077    -4.72112
H      2.91037    -2.89953    -3.02182
C     -2.37306    -0.38553    -1.43165
C     -2.69157    -1.01310    -2.74733
O     -1.23924    -0.39043    -0.95111
O     -3.39312     0.16716    -0.83382
H     -3.13366     0.57343     0.04152
H     -2.02721    -0.60745    -3.50488
H     -2.46969    -2.07572    -2.69574
H     -3.73156    -0.84577    -3.00422
C      3.01509     1.43837     2.77617
C      2.66207     0.83195     1.45146
O      2.36953     2.26517     3.36870
O      4.16843     0.94063     3.27717
H      4.30204     1.37961     4.12597
H      3.55683     0.59942     0.87814
H      2.10642    -0.08930     1.61841
H      2.01535     1.50701     0.90258
C     -1.62058     1.42366     1.89402
C     -1.33332     2.18677     3.14488
O     -2.75302     1.26325     1.46717
O     -0.54782     0.94604     1.29007
H     -0.80528     0.45267     0.47506
H     -0.29271     2.08419     3.42414
H     -1.57092     3.23260     2.96316
H     -1.99369     1.82995     3.93037
