 56
-1604.7973552750775
C     -3.55906     0.98497     0.30127
C     -4.82204     0.19002     0.46224
O     -3.03101     1.21572    -0.76063
O     -3.06971     1.40689     1.47552
H     -2.25243     1.90729     1.31364
H     -5.29416     0.42527     1.41129
H     -5.48906     0.40008    -0.36923
H     -4.57233    -0.86868     0.43820
C      2.09242     0.51715    -3.82259
C      1.94567     0.66077    -5.31264
O      2.39170    -0.50358    -3.25346
O      1.84122     1.67081    -3.18685
H      1.92470     1.52895    -2.22924
H      2.17582    -0.28285    -5.79378
H      0.92725     0.96148    -5.55404
H      2.61454     1.43916    -5.67523
C     -0.29073     3.32466    -0.28603
C     -1.17236     3.81845    -1.37887
O     -0.71370     2.90415     0.78740
O      0.99183     3.40688    -0.55021
H      3.17379     3.29819     4.48054
H     -1.39993     4.86769    -1.19257
H     -0.65592     3.72373    -2.32736
H     -2.09725     3.25412    -1.37978
C     -1.70372    -5.54427     1.05831
C     -1.96355    -6.86725     1.71955
O     -2.61578    -4.81024     0.70358
O     -0.43231    -5.25841     0.90090
H     -0.32054    -4.37679     0.44973
H     -2.56629    -6.70399     2.60933
H     -2.54405    -7.48891     1.04239
H     -1.02891    -7.35304     1.97458
C     -1.06533    -2.17245    -0.63291
C     -0.79409    -0.85842    -1.28268
O     -0.17469    -2.93838    -0.29252
O     -2.34262    -2.43711    -0.45175
H     -2.45865    -3.32698    -0.02259
H      0.20693    -0.86531    -1.69074
H     -1.53487    -0.64833    -2.04419
H     -0.86983    -0.07321    -0.53517
C      1.82763     2.65512     2.97841
C      2.57147     2.42076     4.25566
O      2.40853     2.83779     1.91284
O      0.52385     2.64413     3.08956
H      0.09041     2.75281     2.20625
H      1.51286     2.86675     0.07443
H      1.88550     2.21829     5.07018
H      3.25007     1.58383     4.10608
C      2.82286     0.12512     0.18141
C      3.12974    -1.26945    -0.25074
O      1.95522     0.82201    -0.31685
O      3.57987     0.54992     1.18580
H      3.28771     1.45083     1.43134
H      3.29641    -1.27425    -1.32482
H      3.99305    -1.64713     0.28833
H      2.25795    -1.89270    -0.05914
