 80
-2292.5887148974816
C      2.76175    -1.34720     0.98885
C      1.35554    -1.82882     1.08564
O      3.38974    -1.30217    -0.05980
O      3.28164    -0.98544     2.14061
H      4.16520    -0.56651     2.00179
H      1.34892    -2.89037     1.32355
H      0.81567    -1.29188     1.85370
H      0.86146    -1.68107     0.13277
C     -2.14622     3.44088     0.17905
C     -1.61897     2.60715     1.29352
O     -1.88184     3.21197    -1.00267
O     -2.92110     4.42277     0.54635
H     -3.26379     4.92695    -0.24172
H     -0.79494     2.00090     0.94459
H     -1.29399     3.24194     2.11218
H     -2.41766     1.97012     1.66194
C     -1.47040    -4.64511     0.34319
C     -2.83096    -4.72278     0.94747
O     -1.21312    -3.95579    -0.64159
O     -0.57553    -5.37675     0.94855
H      0.30359    -5.31412     0.49079
H     -3.50087    -4.06263     0.41194
H     -3.18528    -5.75156     0.91320
H     -2.75685    -4.41883     1.98731
C      2.16448     2.01951     2.39037
C      3.08330     2.39410     3.51371
O      1.03486     1.62194     2.52890
O      2.74741     2.15954     1.19105
H      2.17018     1.74621     0.52843
H      3.88049     1.65461     3.57237
H      3.53488     3.36697     3.32701
H      2.53613     2.41060     4.45115
C      2.00778    -4.49539    -1.28256
C      3.35200    -4.48694    -1.93908
O      1.74805    -5.19235    -0.31678
O      1.13696    -3.66974    -1.83617
H      0.24984    -3.75623    -1.40748
H      3.90701    -5.37180    -1.64792
H      3.24141    -4.43505    -3.01865
H      3.89057    -3.59980    -1.60836
C      0.58312     0.56868    -1.72452
C      1.10295    -0.54482    -2.57663
O      0.95899     0.81277    -0.59552
O     -0.34672     1.28706    -2.35044
H     -0.71448     1.97228    -1.76479
H      0.28213    -1.17694    -2.90081
H      1.58504    -0.12698    -3.46001
H      1.81618    -1.13476    -2.01480
C     -2.06389    -1.11845     2.62593
C     -1.38789    -0.44735     3.78043
O     -1.60388    -2.05361     2.01244
O     -3.23932    -0.55160     2.32790
H     -3.59360    -0.96971     1.51702
H     -2.12086    -0.07033     4.48927
H     -0.70885    -1.14529     4.26184
H     -0.79800     0.38954     3.40614
C     -3.61787     5.50816    -2.72985
C     -4.20513     6.31466    -3.84892
O     -3.85667     5.75060    -1.55731
O     -2.83502     4.52397    -3.12771
H     -2.48100     4.02553    -2.35429
H     -5.28665     6.20462    -3.82978
H     -3.98300     7.36535    -3.68365
H     -3.80944     5.98328    -4.80163
C      5.63651     1.00595     0.60097
C      6.38271     2.30419     0.53007
O      5.52283     0.36585     1.63479
O      5.11518     0.63954    -0.55068
H      4.51513    -0.13121    -0.41432
H      6.80250     2.44553    -0.46032
H      5.67095     3.10605     0.72526
H      7.15675     2.32896     1.28996
C     -3.43311    -1.02672    -1.05594
C     -3.90842     0.15961    -1.84285
O     -4.01392    -1.48890    -0.09397
O     -2.30629    -1.53585    -1.52853
H     -2.03975    -2.31631    -1.00766
H     -4.71871     0.65893    -1.32286
H     -3.08398     0.84520    -2.00457
H     -4.25398    -0.17969    -2.81808
