 48
-1375.552066139188
C     -4.54269     0.52516    -0.19123
C     -5.45481     1.19916     0.78326
O     -4.59902    -0.66584    -0.45158
O     -3.65939     1.34349    -0.73170
H     -2.94601     0.82214    -1.15401
H     -6.35884     0.61548     0.91990
H     -4.92535     1.26783     1.73318
H     -5.68397     2.20635     0.44843
C      4.40884     0.75706    -2.15576
C      4.91617     1.30875    -3.45608
O      4.03381    -0.40152    -2.04259
O      4.38637     1.62783    -1.16952
H      4.09516     1.18864    -0.32643
H      5.69774     0.65743    -3.83770
H      4.10031     1.29913    -4.17565
H      5.28586     2.31883    -3.32449
C     -1.42940    -1.34768    -1.34305
C     -0.16289    -2.12264    -1.49834
O     -1.47403    -0.12256    -1.40658
O     -2.48865    -2.08747    -1.13146
H     -3.29336    -1.53554    -0.94315
H      0.60181    -1.47866    -1.91250
H      0.14910    -2.45751    -0.51118
H     -0.32157    -2.99176    -2.13119
C      0.60875     1.93522     0.42080
C      1.42309     3.16715     0.64814
O     -0.15975     1.46381     1.23303
O      0.82247     1.38041    -0.76358
H      0.13528     0.70683    -0.91581
H      1.23236     3.55701     1.64244
H      2.47789     2.92373     0.54131
H      1.17417     3.91736    -0.10060
C      2.88477    -0.56052     1.07056
C      2.19354    -1.00231     2.31648
O      3.57873     0.44650     1.02852
O      2.66214    -1.32486     0.02222
H      3.16759    -0.99599    -0.76685
H      2.75684    -0.66980     3.18153
H      1.20343    -0.55153     2.33244
H      2.05607    -2.07810     2.32208
C     -1.85101    -1.49891     1.95064
C     -2.94905    -2.41180     2.40299
O     -0.73791    -1.86169     1.65220
O     -2.24794    -0.22656     1.86839
H     -1.48790     0.33539     1.61151
H     -3.64172    -2.55662     1.57473
H     -2.53346    -3.37328     2.68593
H     -3.49993    -1.97611     3.23301
