 64
-1834.0564313151044
C     -0.96490     1.04985     0.00689
C      0.40575     1.44541     0.46006
O     -1.84144     0.68079     0.76012
O     -1.13324     1.12561    -1.30575
H     -2.07888     0.96068    -1.53349
H      0.95318     1.90845    -0.35082
H      0.33673     2.12702     1.29906
H      0.93062     0.55560     0.80171
C      4.20113     1.70533     1.67077
C      4.33805     2.86591     2.59833
O      3.68384     0.64234     2.00378
O      4.67389     1.91446     0.46146
H      4.52591     1.13020    -0.12063
H      3.33968     3.22793     2.84219
H      4.79641     2.52801     3.52412
H      4.92652     3.64850     2.13267
C      1.46520     0.14877    -3.16646
C      0.39191     0.63556    -4.08235
O      1.58604    -0.99920    -2.78300
O      2.30231     1.11437    -2.78911
H      3.00648     0.72279    -2.24597
H     -0.26197    -0.18908    -4.33628
H     -0.17051     1.41458    -3.57538
H      0.84241     1.06799    -4.97504
C      4.13449    -1.36647    -0.71933
C      4.19418    -2.55578    -1.61582
O      4.27622    -0.21616    -1.13026
O      3.91349    -1.63905     0.54393
H      3.83219    -0.81334     1.07710
H      5.08165    -2.48825    -2.23946
H      4.19658    -3.46676    -1.02934
H      3.32485    -2.53024    -2.26851
C     -3.44569    -1.56962     2.99791
C     -4.15692    -2.00688     4.25485
O     -3.04285    -2.31943     2.14526
O     -3.30891    -0.23632     2.95569
H     -2.83324     0.02579     2.14587
H     -4.22899    -3.08853     4.27253
H     -3.60378    -1.65422     5.12406
H     -5.15022    -1.56275     4.29134
C     -4.45361     0.34794    -2.82469
C     -5.79520     0.97407    -3.06264
O     -3.68145     0.77861    -1.98373
O     -4.20463    -0.69249    -3.58806
H     -3.31765    -1.08577    -3.37894
H     -5.65361     2.00416    -3.38224
H     -6.34635     0.42021    -3.81400
H     -6.34602     0.99630    -2.12528
C      0.78792     1.66371     3.86889
C     -0.59921     1.51698     4.41073
O      1.22321     2.68040     3.37962
O      1.50707     0.54061     3.96084
H      2.34794     0.67838     3.49731
H     -0.71890     0.57635     4.93781
H     -0.81723     2.35565     5.06801
H     -1.30746     1.55370     3.58523
C     -1.71045    -2.05774    -1.84261
C     -2.85320    -2.37637    -0.94402
O     -1.83300    -1.73868    -3.01624
O     -0.53599    -2.12991    -1.24151
H      0.16696    -1.87028    -1.86013
H     -3.08813    -1.48655    -0.36479
H     -3.71647    -2.66747    -1.53195
H     -2.58554    -3.15693    -0.24151
