 80
-2292.5921596298663
C     -2.19308     1.42457    -4.22921
C     -3.14280     1.76860    -5.33132
O     -1.83940     0.27959    -3.99610
O     -1.80512     2.46527    -3.52091
H     -1.17191     2.19578    -2.81371
H     -4.15182     1.68031    -4.92996
H     -2.98188     2.78925    -5.66175
H     -3.02865     1.06316    -6.14769
C     -7.82904     2.44878    -1.40614
C     -9.08733     3.26699    -1.41387
O     -7.22024     2.21420    -0.37201
O     -7.45326     2.01980    -2.58969
H     -6.61448     1.48831    -2.53056
H     -9.48606     3.34408    -2.41858
H     -9.81243     2.80368    -0.74961
H     -8.86725     4.25432    -1.01535
C      1.12629    -3.39117     0.45483
C     -0.26752    -2.88744     0.30784
O      1.51972    -3.99367     1.44323
O      1.91213    -3.11531    -0.56982
H      2.82689    -3.44798    -0.40619
H     -0.51787    -2.80709    -0.74365
H     -0.95165    -3.55309     0.82474
H     -0.34768    -1.89817     0.75277
C      5.88644    -0.80387     0.96662
C      6.38839     0.60791     0.90056
O      6.28865    -1.64706     1.73198
O      4.91140    -1.03018     0.07473
H      4.67293    -1.97100     0.10705
H      7.24230     0.72580     1.55900
H      6.65580     0.86499    -0.12240
H      5.58791     1.27633     1.21357
C      4.77909    -4.44436     1.05878
C      6.19786    -4.83646     1.29877
O      4.41730    -3.85019     0.04301
O      3.94785    -4.76484     2.01418
H      3.01415    -4.49120     1.79046
H      6.74306    -3.93635     1.57917
H      6.25548    -5.56655     2.09779
H      6.62953    -5.21974     0.37863
C     -4.63301     0.33122    -1.39949
C     -3.39866    -0.50549    -1.38262
O     -5.21356     0.62848    -2.43364
O     -5.02865     0.72811    -0.20748
H     -5.85307     1.28111    -0.26866
H     -3.30463    -1.03070    -2.32392
H     -2.53472     0.13308    -1.23793
H     -3.42873    -1.19217    -0.54325
C      2.56700    -0.46291     3.01191
C      3.11489    -1.63121     3.76619
O      1.45190    -0.43068     2.52437
O      3.42601     0.53296     2.90659
H      3.02860     1.25133     2.37298
H      4.06396    -1.92316     3.32577
H      3.29128    -1.34598     4.80231
H      2.41176    -2.45460     3.72498
C      1.27648     3.21387     1.51244
C      1.15946     4.17563     2.65359
O      2.17470     2.40111     1.39349
O      0.28331     3.32682     0.65168
H      0.36371     2.67931    -0.07562
H      2.07592     4.18456     3.23190
H      0.92769     5.17197     2.28593
H      0.33318     3.85339     3.28649
C      0.49714     0.60599    -1.62552
C      1.73593     0.35549    -0.83744
O     -0.06880     1.69962    -1.62809
O      0.04126    -0.42559    -2.28410
H     -0.72005    -0.18629    -2.87891
H      2.27800    -0.48965    -1.24045
H      2.34843     1.25087    -0.82683
H      1.44712     0.15235     0.19260
C     -1.52433     0.87151     1.81329
C     -2.79263     1.66603     1.90705
O     -1.26914     0.12580     0.89354
O     -0.69793     1.08254     2.83539
H      0.09590     0.51274     2.71512
H     -3.00778     2.09570     0.93407
H     -3.61999     1.00534     2.15554
H     -2.70931     2.44372     2.65927
