 56
-1604.8082252035274
C      0.99041    -0.00749     1.86751
C      0.82308     1.32453     2.51608
O      1.62550    -0.18444     0.83104
O      0.39089    -0.98658     2.50184
H      0.58801    -1.86817     2.08876
H      1.29502     1.30085     3.49786
H      1.27631     2.09108     1.90051
H     -0.23636     1.52412     2.65217
C      1.82933     0.03618    -3.98415
C      3.20001    -0.41368    -4.38926
O      1.36449     1.11472    -4.31741
O      1.18470    -0.83603    -3.23829
H      0.41600    -0.40681    -2.80561
H      3.52255     0.12041    -5.27669
H      3.87997    -0.18745    -3.56930
H      3.20812    -1.48689    -4.55406
C     -2.25799    -1.43096     0.71592
C     -2.75258    -2.60904     1.48077
O     -2.48266    -0.26756     0.98622
O     -1.50299    -1.77140    -0.32817
H     -2.45927     3.04779    -1.44613
H     -1.89386    -3.14239     1.88378
H     -3.40022    -2.28235     2.28566
H     -3.28576    -3.28183     0.81032
C      1.17870    -3.42368     0.14637
C      0.91133    -4.65903    -0.66139
O      0.86578    -3.31928     1.32170
O      1.78268    -2.47345    -0.53371
H      1.79463    -1.63588    -0.01926
H      0.46898    -5.42508    -0.03515
H      0.23689    -4.40432    -1.47577
H      1.83964    -5.02005    -1.09953
C     -3.29870     0.24248     4.34216
C     -3.31360     0.87799     5.70790
O     -3.88741    -0.76693     4.04668
O     -2.52754     0.93327     3.48707
H     -2.55370     0.51078     2.60834
H     -3.97704     0.31804     6.35724
H     -2.30573     0.87832     6.11971
H     -3.64211     1.91306     5.63507
C     -0.87751     1.72014    -1.92298
C     -1.69741     2.46867    -0.92727
O     -0.67284     0.51132    -1.85771
O     -0.38782     2.46319    -2.88469
H      0.21317     1.93509    -3.47277
H     -1.21644    -0.96250    -0.78299
H     -2.14425     1.76195    -0.23830
H     -1.04599     3.15685    -0.39362
C      2.22651     2.76141    -1.09196
C      2.83295     3.70928    -2.07670
O      1.44026     3.06914    -0.22906
O      2.62284     1.49686    -1.28974
H      2.21439     0.93990    -0.60664
H      3.89340     3.50683    -2.20496
H      2.34044     3.56647    -3.03794
H      2.67600     4.73027    -1.74524
