 32
-917.0166496789857
C      2.19187     1.14837    -1.65573
C      3.67569     1.05427    -1.53435
O      1.61904     1.80658    -2.48479
O      1.52583     0.41316    -0.73290
H      0.56852     0.54422    -0.85842
H      3.98677     0.39627    -0.73376
H      4.07343     0.70629    -2.48614
H      4.06590     2.05718    -1.36843
C     -2.03202     1.12555    -1.57862
C     -1.48076     1.78993    -2.79460
O     -1.32319     0.57172    -0.73958
O     -3.33512     1.18937    -1.48247
H     -3.67615     0.74003    -0.66088
H     -0.78074     1.11962    -3.28175
H     -2.28561     2.07989    -3.46061
H     -0.90555     2.65956    -2.48863
C      3.72889    -1.50126     1.57678
C      4.02573    -2.46290     2.69472
O      4.57350    -0.91684     0.94413
O      2.41234    -1.37112     1.36374
H      2.25624    -0.74547     0.63654
H      4.62466    -1.95181     3.44467
H      3.10873    -2.84196     3.13107
H      4.62554    -3.27979     2.29988
C     -3.68908    -0.62172     1.49736
C     -4.31770    -1.31503     2.66674
O     -4.34022     0.00113     0.67465
O     -2.37656    -0.74821     1.44542
H     -2.01332    -0.27490     0.66433
H     -3.56509    -1.82992     3.25204
H     -4.83431    -0.57706     3.27518
H     -5.06458    -2.01482     2.30114
