 64
-1834.0630309748942
C     -4.01398    -1.65019    -0.62377
C     -4.42642    -3.07615    -0.76353
O     -4.21668    -0.99485     0.39717
O     -3.39490    -1.14739    -1.66422
H     -3.16588    -0.19398    -1.52408
H     -4.49028    -3.34910    -1.81104
H     -3.66058    -3.67968    -0.27601
H     -5.37012    -3.23444    -0.25087
C      3.02076     2.03421     0.34951
C      2.65217     3.47555     0.35000
O      2.66469     1.25166     1.22662
O      3.77129     1.65678    -0.65814
H      3.96899     0.69097    -0.59598
H      1.95849     3.66082     1.16023
H      3.55256     4.07815     0.46089
H      2.18537     3.71423    -0.59983
C      1.25418    -2.34094    -1.70090
C     -0.11308    -2.45477    -2.30085
O      1.73851    -3.14601    -0.94380
O      1.90320    -1.23265    -2.10131
H      2.75017    -1.17373    -1.62724
H     -0.64109    -3.26746    -1.81457
H     -0.65405    -1.52414    -2.16383
H     -0.03243    -2.64231    -3.37101
C      4.05403    -1.67541     0.53934
C      4.52185    -3.08781     0.63018
O      4.22289    -0.98238    -0.46369
O      3.42090    -1.22891     1.59379
H      3.11318    -0.29399     1.46286
H      3.76367    -3.70604     0.14952
H      5.45461    -3.19933     0.08677
H      4.62411    -3.38560     1.66793
C     -1.22948    -2.39711     1.63402
C      0.14705    -2.47076     2.22108
O     -1.67680    -3.17446     0.82505
O     -1.93561    -1.35837     2.11549
H     -2.78792    -1.32375     1.65398
H      0.73750    -3.18030     1.65212
H      0.61109    -1.49079     2.19479
H      0.08250    -2.78826     3.26180
C     -3.05775     2.09853    -0.28838
C     -2.68064     3.53157    -0.18524
O     -2.81241     1.40807    -1.27403
O     -3.67917     1.61491     0.76433
H     -3.89201     0.65758     0.64023
H     -1.86682     3.61098     0.53535
H     -2.35003     3.89658    -1.14874
H     -3.52249     4.10709     0.19032
C     -0.55285     2.08599     2.88300
C     -1.68327     1.78877     3.82256
O     -0.52631     3.01346     2.10824
O      0.44182     1.19794     2.99583
H      1.14367     1.41726     2.36097
H     -2.61526     2.11112     3.37050
H     -1.71165     0.72725     4.04317
H     -1.52713     2.34337     4.74832
C      0.55397     1.63708    -2.76028
C      1.66367     1.46279    -3.75395
O      0.66300     2.16188    -1.67885
O     -0.60818     1.13709    -3.20903
H     -1.29304     1.31616    -2.54610
H      2.55973     1.93653    -3.37111
H      1.84596     0.40314    -3.90536
H      1.37875     1.90161    -4.70990
