 40
-1146.27242996829
C      5.25555    -4.64478    -0.44702
C      5.66811    -6.08881    -0.48163
O      5.96119    -3.72902    -0.79291
O      4.00904    -4.48637     0.02052
H      3.78223    -3.54164     0.01026
H      4.84928    -6.73265    -0.18066
H      5.99924    -6.33572    -1.48772
H      6.51897    -6.22603     0.18263
C      3.57399    -0.79584     0.03054
C      5.05341    -0.79420    -0.13758
O      2.89578    -1.81542     0.08110
O      3.04863     0.40863     0.11629
H      2.07196     0.36401     0.20825
H      5.49334    -1.49831     0.56187
H      5.29561    -1.16280    -1.13132
H      5.44704     0.20596     0.00487
C     -2.13230     3.14687    -0.22761
C     -2.64910     4.49003    -0.61521
O     -2.82354     2.22553     0.16566
O     -0.81200     3.03748    -0.34962
H     -0.54676     2.14185    -0.08103
H     -1.83036     5.14675    -0.88611
H     -3.34814     4.37746    -1.43954
H     -3.22497     4.90156     0.20930
C     -6.30290     3.10951    -0.16198
C     -7.79468     2.90886    -0.16292
O     -5.76935     4.17187    -0.36691
O     -5.64254     1.97209     0.09380
H     -4.68147     2.14566     0.09540
H     -8.04340     1.86275    -0.02401
H     -8.22798     3.50895     0.63480
H     -8.19825     3.27768    -1.10310
C     -0.36266    -0.63395     0.68908
C     -1.80540    -0.62589     1.06877
O      0.26087     0.37611     0.38440
O      0.18676    -1.83002     0.71520
H      1.13850    -1.79534     0.47013
H     -2.39805    -0.24971     0.24080
H     -2.12064    -1.62314     1.35391
H     -1.94322     0.07428     1.88847
