 48
-1375.5472229121915
C      1.03647     0.80265     2.84856
C      1.87620     0.82933     4.09944
O      0.19606    -0.03563     2.61514
O      1.34733     1.79542     2.02015
H      0.73932     1.78599     1.25173
H      2.92813     0.74701     3.82882
H      1.73954     1.77563     4.62097
H      1.59685     0.00642     4.74923
C      1.45643    -1.67936     0.17334
C      0.02627    -2.08480     0.22718
O      1.83865    -0.65057    -0.38577
O      2.28252    -2.48981     0.78197
H      3.22084    -2.15504     0.76365
H     -0.06347    -3.16213     0.31543
H     -0.41899    -1.60594     1.09883
H     -0.50316    -1.71923    -0.64413
C     -0.52325     1.80927    -1.20374
C     -1.24796     2.78926    -2.06933
O     -0.42594     1.91265     0.00288
O     -0.01703     0.79382    -1.87899
H      0.53608     0.24816    -1.28115
H     -1.74936     3.52320    -1.44894
H     -0.54308     3.28640    -2.73463
H     -1.97368     2.25902    -2.67933
C     -3.14132     0.34651     0.60742
C     -2.83739     0.63313     2.03800
O     -2.77073    -0.66739     0.03119
O     -3.82695     1.29832     0.00876
H     -4.00147     1.04150    -0.93019
H     -3.67104     1.14779     2.50504
H     -2.59751    -0.28558     2.55967
H     -1.95686     1.26999     2.07020
C      5.18693    -0.55270     0.42204
C      6.60605    -0.08016     0.53184
O      4.81074    -1.64374     0.81669
O      4.38676     0.33183    -0.14512
H      3.46810    -0.01036    -0.19987
H      6.63705     0.84764     1.09861
H      7.20661    -0.83883     1.01858
H      6.99655     0.12748    -0.46195
C     -4.25553    -0.60729    -2.88618
C     -4.88116    -1.00522    -4.19248
O     -4.18094     0.56125    -2.52946
O     -3.79097    -1.61148    -2.17761
H     -3.38812    -1.27287    -1.33198
H     -4.84576    -2.08103    -4.31690
H     -5.90960    -0.65253    -4.21475
H     -4.34896    -0.51092    -5.00177
