 48
-1375.5384195806273
C      0.52756     0.69109     4.33195
C      0.55919     1.53801     5.57271
O     -0.26877    -0.18663     4.10831
O      1.50345     1.02846     3.47562
H      1.41775     0.47887     2.68300
H      1.53577     1.46167     6.04664
H      0.40151     2.58139     5.30475
H     -0.21613     1.20968     6.25546
C      0.54002    -1.28303     0.60929
C     -0.86519    -1.14198     1.06344
O      1.47352    -0.57160     0.99882
O      0.73000    -2.21790    -0.28586
H      1.68422    -2.27999    -0.57027
H     -1.39322    -2.07960     0.94008
H     -0.89160    -0.79164     2.09050
H     -1.34258    -0.38658     0.43922
C     -0.10578     2.48530     0.04968
C     -0.36299     3.76069    -0.69650
O     -0.84772     2.01723     0.87860
O      1.04297     1.90496    -0.32735
H      1.20202     1.12482     0.22818
H      0.56053     4.31785    -0.82843
H     -0.76450     3.51884    -1.67890
H     -1.09444     4.34617    -0.14968
C     -3.73039     1.01935    -0.89214
C     -4.47308     1.96906    -0.00753
O     -3.91030    -0.18875    -0.86544
O     -2.85636     1.60491    -1.68370
H     -2.33235     0.92574    -2.19234
H     -5.29865     1.45589     0.47107
H     -3.77888     2.33377     0.74756
H     -4.82553     2.82016    -0.58379
C      4.17076    -1.69815    -0.88999
C      5.51792    -1.86498    -1.52016
O      3.22801    -2.43358    -1.13519
O      4.09363    -0.68249    -0.04942
H      3.19250    -0.61456     0.32213
H      5.84459    -2.89352    -1.39525
H      5.42939    -1.67876    -2.58780
H      6.23004    -1.17779    -1.07868
C     -1.56313    -1.40836    -2.87008
C     -0.71187    -2.36711    -3.64196
O     -1.43524    -0.19458    -2.95125
O     -2.43663    -1.99379    -2.08295
H     -3.01571    -1.31978    -1.63421
H     -0.25119    -1.85902    -4.48197
H      0.06647    -2.73185    -2.97383
H     -1.30346    -3.21470    -3.97500
