 72
-2063.3276288177417
C      5.48183    -0.08044     3.85057
C      6.24397     0.93920     4.64788
O      5.39290    -0.01636     2.63394
O      4.92823    -1.02835     4.57745
H      4.45981    -1.68753     3.99546
H      7.27706     0.94732     4.30961
H      5.82691     1.92314     4.44853
H      6.19249     0.71092     5.70614
C     -1.62608     3.85293     0.55886
C     -1.82915     4.20693     1.99474
O     -2.55217     3.51134    -0.17670
O     -0.38660     3.90744     0.15327
H     -0.32490     3.67438    -0.81239
H     -2.86669     4.47096     2.16587
H     -1.57965     3.33028     2.59062
H     -1.16175     5.01290     2.28206
C     -1.20571     3.03307    -3.15263
C     -0.96297     2.59196    -4.55697
O     -0.30165     3.27147    -2.36624
O     -2.47892     3.16416    -2.83753
H     -2.56123     3.36694    -1.87887
H      0.06013     2.24703    -4.64585
H     -1.66082     1.80189    -4.81052
H     -1.12888     3.43752    -5.22375
C      0.86258    -0.24695    -1.54299
C      1.55320     0.79300    -0.73247
O      0.25248    -1.18487    -1.05277
O      0.96122    -0.07427    -2.84738
H      0.48143    -0.80086    -3.30726
H      2.60833     0.53490    -0.65887
H      1.44204     1.75823    -1.22047
H      1.12629     0.81230     0.26325
C      0.32494    -1.01906     3.89988
C      1.00039    -1.41266     5.18141
O      0.24402    -1.74608     2.93741
O     -0.18297     0.21707     3.93269
H     -0.59332     0.41597     3.07275
H      0.83118    -0.66962     5.95397
H      0.61895    -2.38095     5.49687
H      2.06582    -1.53018     5.00221
C     -0.89762    -3.06952    -3.40836
C     -1.54652    -4.16303    -4.19214
O     -0.63928    -1.96616    -3.88372
O     -0.63550    -3.37682    -2.16459
H     -0.26413    -2.58938    -1.68922
H     -2.60211    -4.17360    -3.92744
H     -1.44684    -3.96291    -5.25261
H     -1.11633    -5.12338    -3.92684
C     -2.22168     0.12163     0.75790
C     -2.39347    -1.35654     0.84040
O     -1.48931     0.78274     1.46567
O     -2.96535     0.68560    -0.19449
H     -2.81207     1.64819    -0.20928
H     -1.88676    -1.81497    -0.00651
H     -1.95137    -1.72077     1.76021
H     -3.44806    -1.61522     0.78518
C     -3.73933    -0.53167    -2.96051
C     -4.88294     0.42114    -2.80096
O     -3.78675    -1.72177    -2.77591
O     -2.60939     0.09351    -3.34434
H     -1.89801    -0.56666    -3.39661
H     -5.81762    -0.13231    -2.79339
H     -4.77084     0.95723    -1.86107
H     -4.87563     1.15255    -3.60582
C      3.27083    -2.50698     1.90014
C      2.26444    -3.35936     1.20072
O      3.67982    -2.73263     3.02984
O      3.68249    -1.47644     1.18182
H      4.34188    -0.93978     1.69486
H      2.21851    -4.33245     1.67657
H      1.29205    -2.87419     1.27918
H      2.51523    -3.44293     0.14824
