 48
-1375.5450220701132
C     -0.57925    -2.83062     1.94839
C     -1.13587    -3.29245     3.25481
O     -1.09045    -3.03521     0.86230
O      0.54138    -2.13666     2.08224
H      0.88031    -1.89563     1.20366
H     -1.77769    -4.15359     3.10288
H     -0.32865    -3.52156     3.94315
H     -1.72727    -2.48132     3.67577
C      1.66801    -1.05527    -1.36020
C      0.39724    -1.58289    -1.93231
O      2.02329    -1.26155    -0.20084
O      2.38181    -0.35665    -2.20344
H      3.23017    -0.03651    -1.79601
H     -0.00305    -2.34753    -1.27819
H     -0.31455    -0.76223    -2.00276
H      0.56967    -1.97506    -2.93184
C     -0.55825     1.76526     0.86712
C      0.15368     1.28485     2.08509
O     -0.50151     1.18293    -0.20788
O     -1.27242     2.85078     1.05484
H     -1.71766     3.13074     0.21422
H      0.39188     2.11630     2.74267
H     -0.51637     0.59300     2.59495
H      1.04471     0.74378     1.78365
C     -2.65673     2.73614    -2.16944
C     -3.45103     3.10865    -3.38900
O     -2.51992     3.48275    -1.21375
O     -2.14503     1.52298    -2.22560
H     -1.54699     1.36419    -1.44983
H     -4.19299     2.33939    -3.58965
H     -3.93218     4.06732    -3.23254
H     -2.78926     3.16332    -4.25114
C      5.19953     0.04823    -0.16640
C      6.59074     0.37747     0.28664
O      4.69699     0.51031    -1.17654
O      4.57548    -0.79115     0.64004
H      3.65797    -0.96276     0.32642
H      6.54949     0.84246     1.26879
H      7.16943    -0.53836     0.37892
H      7.05545     1.04814    -0.42526
C     -3.15294    -0.43668     0.90514
C     -4.22597     0.55887     0.57866
O     -2.57407    -0.45545     1.96873
O     -2.90343    -1.27289    -0.09842
H     -2.22623    -1.92541     0.17700
H     -4.73821     0.29196    -0.33863
H     -4.92679     0.61516     1.40779
H     -3.77681     1.54317     0.46656
