 72
-2063.330978148944
C      5.78869    -0.84661     0.39494
C      7.06340    -1.07741     1.13342
O      5.12951     0.18662     0.50735
O      5.40859    -1.84175    -0.36224
H      4.58128    -1.61932    -0.87021
H      7.60619    -0.14263     1.23342
H      6.79702    -1.43421     2.12714
H      7.65803    -1.82996     0.62743
C     -0.57052     1.70953     1.45173
C      0.60241     0.99586     2.02705
O     -1.55362     2.01809     2.10539
O     -0.46805     1.95826     0.16000
H     -1.29129     2.38506    -0.17364
H      0.68192     1.20543     3.08808
H      0.44119    -0.07204     1.90347
H      1.51316     1.26518     1.51354
C     -3.78267    -0.96023    -2.29514
C     -3.82831    -2.44704    -2.07831
O     -4.19817    -0.15050    -1.49976
O     -3.21321    -0.63358    -3.45560
H     -3.21017     0.33698    -3.55437
H     -3.05398    -2.71924    -1.36364
H     -4.78844    -2.71301    -1.64259
H     -3.66493    -2.97573    -3.01220
C     -2.15185    -1.61442     1.94722
C     -3.52192    -1.07236     2.18836
O     -1.68732    -1.76309     0.82722
O     -1.47869    -1.88755     3.04254
H     -0.58181    -2.23631     2.80621
H     -4.05209    -1.69358     2.90627
H     -3.42693    -0.07150     2.60391
H     -4.05435    -1.01973     1.24617
C     -3.03260     3.30222    -4.27533
C     -2.89581     3.92708    -5.63099
O     -3.24786     2.12482    -4.08097
O     -2.90269     4.18822    -3.29444
H     -2.95699     3.72162    -2.43371
H     -3.10104     3.18731    -6.39520
H     -3.58201     4.76551    -5.72025
H     -1.88580     4.31241    -5.75091
C      1.24070    -3.13505     1.12675
C      2.53242    -3.84103     0.86902
O      0.88598    -2.77397     2.23838
O      0.52190    -2.93544     0.04249
H     -0.34125    -2.51049     0.28470
H      3.19333    -3.72746     1.72017
H      2.32378    -4.89841     0.70580
H      2.98871    -3.44211    -0.03117
C      2.53405    -0.25013    -1.61867
C      1.22851    -0.10486    -2.33449
O      3.23643    -1.24343    -1.72175
O      2.86262     0.78296    -0.86343
H      3.71147     0.60701    -0.39266
H      0.59198    -0.94586    -2.07823
H      0.75059     0.82615    -2.05889
H      1.41124    -0.13383    -3.40789
C     -3.86384     2.74852    -0.20786
C     -5.16442     2.79203    -0.93515
O     -2.79309     3.03535    -0.74075
O     -3.94999     2.36049     1.03818
H     -3.05510     2.29765     1.46095
H     -5.98734     2.89453    -0.23405
H     -5.15600     3.60908    -1.64819
H     -5.25665     1.85207    -1.47902
C      3.83504    -0.94321     3.54625
C      2.97293    -1.10319     4.76268
O      4.61250    -1.77832     3.15203
O      3.62359     0.22380     2.92213
H      4.16136     0.25576     2.11293
H      2.73346    -0.13515     5.19188
H      2.04838    -1.59779     4.46815
H      3.48476    -1.73132     5.48515
