 48
-1375.5496418613657
C     -1.35442     2.34293    -3.79974
C     -0.76538     2.91559    -5.05556
O     -2.06418     1.34886    -3.79216
O     -1.02209     3.01188    -2.71307
H     -1.42808     2.60211    -1.91249
H     -1.05230     2.30807    -5.90490
H     -1.11621     3.93657    -5.18632
H      0.31745     2.94969    -4.96233
C      1.23386    -1.17546    -1.01646
C      0.11661    -0.85381    -1.95243
O      1.63724    -2.31272    -0.83116
O      1.74373    -0.11996    -0.41592
H      2.43377    -0.40195     0.23442
H     -0.77192    -1.38000    -1.61945
H     -0.06384     0.21356    -1.95638
H      0.36168    -1.19456    -2.95366
C     -2.93928     0.91592    -0.60956
C     -3.60518     0.47299     0.64109
O     -2.07570     1.79422    -0.62570
O     -3.31791     0.29480    -1.69472
H     -2.87719     0.68631    -2.49499
H     -4.64853     0.24011     0.45052
H     -3.09143    -0.43336     0.96324
H     -3.49275     1.23532     1.40264
C      0.51871     1.87909     1.79613
C      1.82594     2.21858     2.43882
O     -0.22376     1.00312     2.19961
O      0.23050     2.62861     0.74447
H     -0.60379     2.31800     0.35663
H      2.45337     1.33039     2.46245
H      2.32074     3.01694     1.89781
H      1.64424     2.52051     3.46934
C      3.51748    -2.02910     1.89427
C      4.12798    -2.33023     3.23209
O      3.49275    -0.90341     1.42331
O      3.03723    -3.09234     1.28561
H      2.56993    -2.83078     0.45337
H      3.70898    -3.23967     3.64926
H      5.20071    -2.46131     3.10029
H      3.96360    -1.48695     3.89546
C     -0.60813    -2.24034     1.50965
C     -0.53679    -3.72879     1.67555
O     -1.35551    -1.68422     0.73437
O      0.25587    -1.58981     2.28205
H      0.07489    -0.62388     2.21131
H      0.40706    -4.08250     1.26331
H     -0.56939    -4.00138     2.72845
H     -1.35621    -4.19601     1.14020
