 48
-1375.5507291629046
C      1.87256     2.19364    -0.60791
C      3.33337     2.36888    -0.34145
O      1.42338     1.89727    -1.70301
O      1.11360     2.36860     0.45827
H      0.16481     2.34089     0.20510
H      3.87450     2.36738    -1.28039
H      3.50378     3.29610     0.20008
H      3.67221     1.54216     0.27827
C      3.07205    -3.41303    -0.99396
C      3.57758    -4.28878    -2.10441
O      2.10351    -3.72978    -0.31650
O      3.75211    -2.30354    -0.82527
H      3.35537    -1.74695    -0.09701
H      3.82388    -5.26725    -1.69903
H      2.78136    -4.42887    -2.83154
H      4.44532    -3.84057    -2.57362
C     -1.90811     2.06010    -1.39234
C     -3.34864     2.11738    -1.78624
O     -1.50893     2.41173    -0.28368
O     -1.11148     1.58947    -2.31133
H     -0.14804     1.67100    -2.05585
H     -3.73382     1.09937    -1.75253
H     -3.90218     2.73909    -1.09162
H     -3.44738     2.49659    -2.80040
C     -3.23063     1.19567     2.31350
C     -4.29394     0.87652     3.32719
O     -2.20663     0.55848     2.17340
O     -3.53395     2.25646     1.57845
H     -2.82785     2.39349     0.91517
H     -5.23293     0.67398     2.81594
H     -3.99819     0.01444     3.91278
H     -4.44985     1.73507     3.97694
C      1.79128    -1.23650     1.84399
C      1.22341    -0.33990     2.89103
O      2.68437    -0.87974     1.08654
O      1.26707    -2.43986     1.82931
H      1.62041    -2.95973     1.06143
H      1.59380     0.66683     2.74318
H      0.13848    -0.35514     2.83209
H      1.51941    -0.71061     3.87190
C     -1.67242    -1.17938    -0.77286
C     -0.97198    -2.06774    -1.75542
O     -2.84722    -0.90379    -0.80164
O     -0.83022    -0.67467     0.13928
H     -1.35094    -0.16847     0.79922
H     -0.35717    -2.79845    -1.23431
H     -1.70823    -2.56523    -2.38055
H     -0.32142    -1.45858    -2.38195
