 56
-1604.8118326985618
C      1.39688     1.87351    -2.35319
C      0.27179     2.85533    -2.23790
O      1.34653     0.82561    -2.94877
O      2.49670     2.27900    -1.69649
H      3.13745     1.54959    -1.74418
H      0.53128     3.77000    -2.76971
H     -0.62397     2.41687    -2.65881
H      0.11395     3.09622    -1.19082
C      3.66255    -1.36481    -2.24205
C      3.76358    -1.03172    -3.69030
O      3.43608    -2.48905    -1.83337
O      3.82588    -0.32979    -1.42225
H      3.78774    -0.63054    -0.47083
H      3.89752    -1.94140    -4.26433
H      2.83342    -0.54354    -3.97950
H      4.57762    -0.33290    -3.85862
C      0.97271     1.48086     1.97638
C      2.28252     2.20516     1.97316
O      0.05664     1.74490     1.21226
O      0.90884     0.52570     2.87744
H     -3.83287    -0.79097     3.80295
H      2.35860     2.80505     2.88011
H      3.08974     1.47791     1.97027
H      2.33960     2.84524     1.10216
C      3.11747    -2.15274     1.43808
C      2.82327    -2.41518     2.88289
O      3.69316    -1.13760     1.06485
O      2.69688    -3.08346     0.61607
H      2.99106    -2.88375    -0.31388
H      2.27392    -1.56812     3.28449
H      2.24692    -3.32774     2.98970
H      3.76229    -2.49421     3.42616
C     -5.02354     0.56836    -0.89676
C     -6.32144     1.30267    -0.71713
O     -4.88288    -0.58563    -0.51849
O     -4.08196     1.27698    -1.47629
H     -3.24801     0.74615    -1.56746
H     -7.12975     0.70990    -1.13726
H     -6.51127     1.40783     0.34923
H     -6.27394     2.27828    -1.18591
C     -2.51011     0.14605     2.42717
C     -3.88367    -0.22783     2.87687
O     -1.50460    -0.40263     2.84896
O     -2.48292     1.09343     1.51822
H     -1.54709     1.33686     1.30590
H     -0.01265     0.13825     2.89202
H     -4.49662     0.66120     2.99953
H     -4.33205    -0.84569     2.10029
C     -1.60600    -1.05667    -0.83914
C     -0.19886    -1.45139    -0.53184
O     -1.89685    -0.18008    -1.63475
O     -2.50993    -1.72515    -0.14837
H     -3.41156    -1.37674    -0.35071
H      0.45273    -1.16578    -1.35170
H      0.10435    -0.90959     0.36258
H     -0.12062    -2.51344    -0.33023
