 48
-1375.5406703650046
C     -3.38915    -1.06291    -0.13547
C     -4.13699     0.22879    -0.24176
O     -2.94178    -1.65656    -1.10560
O     -3.27722    -1.49692     1.10278
H     -2.73937    -2.32932     1.13793
H     -3.94550     0.69048    -1.20307
H     -5.20125     0.01604    -0.14520
H     -3.84427     0.89804     0.55867
C      1.45649    -0.77149     0.41956
C      0.00671    -0.43758     0.49090
O      2.32278     0.03509     0.09882
O      1.71404    -2.02205     0.72112
H      2.68391    -2.23780     0.64347
H     -0.45689    -0.98516     1.30345
H     -0.12885     0.62964     0.60041
H     -0.45416    -0.75846    -0.43944
C      0.77648     3.40721    -0.62770
C      0.76617     4.87110    -0.91219
O     -0.21802     2.70540    -0.57576
O      1.99535     2.91280    -0.43428
H      1.93917     1.95869    -0.25871
H      0.34813     5.02615    -1.90519
H      0.09743     5.36657    -0.21436
H      1.77043     5.27580    -0.85641
C     -3.10796     4.53247     0.17534
C     -4.55489     4.84322     0.44836
O     -2.21945     5.34669     0.20786
O     -2.92104     3.23626    -0.11095
H     -1.96890     3.08634    -0.27660
H     -4.92620     4.20629     1.24898
H     -4.64762     5.88652     0.72503
H     -5.15005     4.63898    -0.44020
C      5.13694    -1.94412    -0.01229
C      6.54164    -2.42072    -0.22356
O      4.26752    -2.65476     0.46804
O      4.92920    -0.69860    -0.39036
H      3.99789    -0.43464    -0.22111
H      7.14546    -1.63677    -0.66525
H      6.95648    -2.72821     0.73296
H      6.52384    -3.29641    -0.86737
C     -0.99118    -4.02750     0.22024
C      0.00361    -5.13732     0.35110
O     -1.63198    -3.59552     1.16494
O     -1.09598    -3.55418    -1.00510
H     -1.81020    -2.86677    -1.06021
H     -0.09123    -5.82565    -0.48395
H      1.00133    -4.70512     0.32394
H     -0.14242    -5.64766     1.29608
