 64
-1834.0632866397746
C     -4.74463    -1.99965     0.05576
C     -6.14669    -2.14661    -0.46097
O     -4.47260    -1.31494     1.03948
O     -3.84982    -2.64653    -0.63719
H     -2.94773    -2.59099    -0.20961
H     -6.21035    -1.69148    -1.44755
H     -6.39258    -3.19971    -0.56772
H     -6.83800    -1.66098     0.21639
C      2.86658     2.01204     0.66099
C      2.20087     3.34095     0.58431
O      2.80522     1.27311     1.64007
O      3.53791     1.68580    -0.42435
H      3.88861     0.76519    -0.37150
H      1.85130     3.63102     1.56652
H      2.88459     4.07356     0.16432
H      1.34364     3.25623    -0.08535
C      1.82373    -2.34761    -2.19049
C      0.66016    -2.55969    -3.10610
O      2.01279    -2.95586    -1.16353
O      2.65406    -1.38445    -2.62474
H      3.32683    -1.23537    -1.94137
H      0.01275    -1.68712    -3.06885
H      1.00737    -2.68474    -4.13050
H      0.10453    -3.43315    -2.78289
C      4.28559    -1.64055     0.62202
C      4.69663    -3.07189     0.57721
O      4.38486    -0.88223    -0.33975
O      3.79423    -1.25350     1.77474
H      3.49662    -0.31619     1.73676
H      5.61922    -3.16711     0.01294
H      4.80204    -3.46447     1.58222
H      3.91441    -3.61507     0.04884
C     -1.13494    -1.73430     1.32478
C      0.29848    -1.37854     1.49264
O     -1.53237    -2.58053     0.54446
O     -1.96152    -1.05543     2.11190
H     -2.88693    -1.26093     1.85693
H      0.44192    -0.32387     1.27742
H      0.60465    -1.53915     2.52304
H      0.90100    -1.97435     0.81994
C     -2.81637     1.58351    -0.33261
C     -2.46044     3.00264    -0.60946
O     -2.31162     0.61617    -0.87126
O     -3.75983     1.45439     0.59910
H     -3.92806     0.50708     0.74261
H     -1.58591     3.25223    -0.00885
H     -2.17924     3.11649    -1.65070
H     -3.28576     3.65706    -0.34297
C     -0.53491     1.85909     2.90506
C     -1.75242     1.71659     3.76283
O     -0.51928     2.34670     1.79957
O      0.56554     1.37736     3.49695
H      1.32212     1.53400     2.90640
H     -1.60714     2.25335     4.69965
H     -2.60436     2.11313     3.22688
H     -1.91299     0.66917     3.99865
C      0.53240     1.72972    -2.68423
C      1.66173     1.60150    -3.66097
O      0.38803     2.67507    -1.94485
O     -0.29950     0.68623    -2.72891
H     -1.00560     0.76556    -2.04881
H      2.54423     2.06830    -3.23467
H      1.84941     0.56058    -3.88349
H      1.39200     2.12607    -4.57743
