 48
-1375.540549643554
C      0.47181     1.98860    -0.96500
C     -0.17210     3.08691    -0.17442
O      0.08110     1.60198    -2.04168
O      1.52280     1.45938    -0.32831
H      1.87421     0.72069    -0.84676
H     -0.69450     3.75505    -0.84979
H     -0.90536     2.63860     0.49675
H      0.55813     3.63167     0.41733
C      1.91557    -1.98473    -1.47231
C      0.84915    -1.81494    -2.50087
O      2.67398    -1.07913    -1.13333
O      1.96778    -3.18558    -0.95420
H      2.77537    -3.30024    -0.37906
H     -0.10326    -2.08828    -2.05753
H      0.82810    -0.78281    -2.82711
H      1.04144    -2.48385    -3.33858
C     -3.77637     2.04014     2.30674
C     -4.31945     0.65375     2.27478
O     -3.60507     2.77033     1.35034
O     -3.48048     2.45336     3.54326
H     -3.09461     3.33376     3.46054
H     -3.55913    -0.01576     2.66896
H     -5.20336     0.58534     2.90793
H     -4.55162     0.38015     1.25263
C     -3.10916     1.17408    -1.69037
C     -2.87239     1.03236    -3.15634
O     -2.95373     0.27078    -0.88678
O     -3.49475     2.38543    -1.33630
H     -3.58865     2.44381    -0.35794
H     -3.43731     1.78419    -3.69625
H     -1.80818     1.18382    -3.33443
H     -3.13478     0.02898    -3.47777
C      5.09500    -2.75397     0.51540
C      6.40423    -3.10872     1.15211
O      4.14304    -3.52121     0.51249
O      5.06727    -1.55660    -0.03020
H      4.17902    -1.36955    -0.42107
H      6.22993    -3.36343     2.19402
H      6.80252    -3.99463     0.66393
H      7.10229    -2.28419     1.07110
C     -0.54879    -0.56220     1.28689
C      0.67241    -1.22688     1.85165
O     -1.23752     0.21986     1.89642
O     -0.77614    -0.92322     0.02222
H     -1.57840    -0.45817    -0.30934
H      1.56329    -0.78015     1.41319
H      0.70024    -1.08302     2.92794
H      0.67290    -2.28590     1.61118
