 48
-1375.5395371268403
C     -0.07784    -0.16744     2.75428
C     -1.47051     0.29325     3.05812
O      0.37846    -1.23592     3.08177
O      0.61437     0.74102     2.05464
H      1.43563     0.32438     1.75071
H     -1.86821    -0.26287     3.90035
H     -1.48814     1.36219     3.25323
H     -2.09929     0.09456     2.19094
C      1.83045    -0.98635    -2.16113
C      1.09533    -0.68802    -3.42854
O      2.18833    -2.11035    -1.85103
O      2.06483     0.07645    -1.41221
H      2.41987    -0.19974    -0.53259
H      1.21767    -1.51060    -4.12622
H      0.03906    -0.57224    -3.18919
H      1.45201     0.24267    -3.85812
C     -0.18386     3.32614    -2.00033
C      0.63647     2.84748    -0.84938
O     -1.20422     3.97677    -1.94046
O      0.32225     2.94187    -3.18682
H     -0.25339     3.30992    -3.87047
H      1.69878     2.93586    -1.05488
H      0.37265     3.39126     0.05001
H      0.42012     1.79373    -0.69707
C     -3.25092     1.77862    -0.22901
C     -4.28580     1.16079     0.65307
O     -2.22577     1.22512    -0.58069
O     -3.55700     3.02063    -0.57477
H     -2.82057     3.39919    -1.09199
H     -5.25896     1.59553     0.44546
H     -4.29409     0.08442     0.52442
H     -4.02829     1.38057     1.68857
C      3.05072    -1.88959     1.35380
C      3.40500    -2.25955     2.75550
O      2.87519    -0.72328     1.00022
O      2.92617    -2.90090     0.53437
H      2.67642    -2.59885    -0.38260
H      3.74515    -3.28801     2.79945
H      4.16172    -1.57658     3.13116
H      2.50769    -2.13719     3.36081
C     -1.50221    -2.21706     0.15640
C     -0.68423    -3.47157     0.23510
O     -2.64823    -2.11339     0.51213
O     -0.79019    -1.18252    -0.33140
H     -1.36162    -0.38931    -0.35609
H     -1.33988    -4.33018     0.35341
H     -0.06958    -3.58006    -0.65434
H     -0.02455    -3.40178     1.09871
