 80
-2292.5795387075195
C      1.64142     3.55645     0.00538
C      0.38171     4.32356     0.22104
O      2.57315     3.56384     0.79153
O      1.64816     2.84239    -1.10741
H      2.48811     2.32746    -1.18189
H     -0.35035     3.61974     0.60887
H      0.53802     5.11470     0.94566
H     -0.00222     4.71193    -0.71454
C     -4.29054     1.14969    -0.13000
C     -5.11090     0.52778     0.94498
O     -3.72101     2.23448    -0.00998
O     -4.23038     0.44184    -1.23081
H     -3.70646     0.90629    -1.93040
H     -6.16273     0.63256     0.67983
H     -4.87202    -0.52801     1.00550
H     -4.90363     1.02585     1.88263
C      0.69149    -6.17954    -1.81382
C      1.08013    -7.61661    -1.99052
O      0.63493    -5.38613    -2.74100
O      0.43373    -5.85542    -0.56247
H      0.14724    -4.91419    -0.49004
H      1.31389    -7.80676    -3.03060
H      1.93972    -7.83971    -1.36250
H      0.26242    -8.25701    -1.66709
C     -2.12990    -1.90639     2.52039
C     -2.30725    -1.54509     3.96304
O     -2.99909    -1.85206     1.68356
O     -0.87492    -2.29072     2.25336
H     -0.80088    -2.55029     1.32150
H     -2.57304    -2.43959     4.52704
H     -1.38007    -1.14109     4.35476
H     -3.10949    -0.81902     4.05238
C     -0.41621    -2.51338    -1.36261
C     -0.94299    -1.12951    -1.21684
O     -0.23826    -3.26055    -0.40044
O     -0.13828    -2.87171    -2.58764
H      0.13861    -3.82386    -2.64095
H     -1.15633    -0.70783    -2.19294
H     -1.83513    -1.14950    -0.59433
H     -0.19817    -0.53235    -0.69849
C     -2.51282     2.98294     2.99046
C     -1.84104     3.49385     4.22479
O     -2.72763     1.81059     2.75766
O     -2.86385     3.94743     2.13773
H     -3.28912     3.52238     1.37326
H     -0.91706     2.94110     4.37275
H     -1.64993     4.55762     4.13800
H     -2.48385     3.29608     5.08067
C      0.43407     0.80768     2.19111
C      1.75808     0.35173     1.66253
O      0.21003     1.11952     3.33004
O     -0.51056     0.83700     1.22763
H     -1.35746     1.07698     1.64181
H      1.91031     0.65425     0.63317
H      2.55749     0.75504     2.27863
H      1.79776    -0.73600     1.69511
C     -1.93804     2.55798    -2.85966
C     -0.89290     3.00269    -3.83499
O     -2.69198     1.62268    -3.06162
O     -1.95731     3.27026    -1.74256
H     -2.62422     2.90918    -1.11055
H     -0.91803     4.08439    -3.93208
H      0.08777     2.72090    -3.45839
H     -1.06379     2.52686    -4.79386
C      4.88421     1.55298    -0.48817
C      6.18837     0.88996    -0.77686
O      3.87516     1.37366    -1.17396
O      4.89122     2.33726     0.55640
H      4.02556     2.81314     0.66439
H      6.10037    -0.15513    -0.48526
H      6.38297     0.92423    -1.84515
H      6.97917     1.37083    -0.21328
C      3.47801    -2.01472    -0.77371
C      3.10575    -3.44782    -1.00668
O      4.42414    -1.66028    -0.11608
O      2.62741    -1.16062    -1.36910
H      2.97490    -0.25427    -1.27672
H      2.31644    -3.73077    -0.31471
H      2.72250    -3.58548    -2.01164
H      3.96783    -4.08539    -0.83798
