 64
-1834.0618225844116
C     -2.20386    -0.26078    -0.09201
C     -0.74685    -0.57254    -0.07766
O     -2.64471     0.76698     0.42978
O     -2.97039    -1.12570    -0.69930
H     -3.92647    -0.84031    -0.69661
H     -0.55931    -1.62458    -0.25835
H     -0.27563     0.02645    -0.85722
H     -0.34214    -0.25695     0.87677
C      3.63501     0.21009     2.76484
C      3.90636     1.17111     3.86990
O      2.62551    -0.49155     2.71767
O      4.56028     0.16173     1.83557
H      4.30409    -0.45559     1.10727
H      4.87805     1.63208     3.73746
H      3.11275     1.91642     3.88659
H      3.85054     0.63945     4.81622
C      2.29391     0.37618    -2.81320
C      2.01783     1.46672    -3.79240
O      1.74762    -0.70984    -2.80647
O      3.20969     0.71375    -1.90545
H      3.34904    -0.03254    -1.29717
H      1.53723     1.06497    -4.67793
H      1.34577     2.17779    -3.31304
H      2.93977     1.98198    -4.04835
C      2.88242    -2.31670    -0.09831
C      2.69409    -3.35990    -1.14017
O      3.78104    -1.47568    -0.15674
O      2.01844    -2.33793     0.88561
H      2.22280    -1.64682     1.56053
H      2.34033    -2.86891    -2.04377
H      3.64978    -3.83292    -1.35183
H      1.95116    -4.08098    -0.82367
C      0.40348     2.65398    -0.19950
C      1.61052     3.46500     0.17758
O      0.18634     2.25167    -1.31972
O     -0.41099     2.42115     0.82957
H     -1.17919     1.89600     0.52882
H      1.66621     3.60633     1.25158
H      2.50226     2.96191    -0.18716
H      1.53869     4.43176    -0.31885
C     -5.93232     0.68910    -0.32415
C     -7.37834     1.05598    -0.46557
O     -5.48316    -0.36821    -0.74156
O     -5.20110     1.59942     0.28425
H     -4.26246     1.30532     0.34206
H     -7.98378     0.29239     0.01575
H     -7.56712     2.02715    -0.02326
H     -7.63851     1.06069    -1.52096
C     -0.10020     1.51180     3.80795
C     -1.50239     2.01559     3.98036
O      0.89932     2.12566     4.08949
O     -0.07849     0.27285     3.28573
H      0.84574     0.00591     3.15799
H     -1.95718     2.15025     2.99984
H     -2.09538     1.28399     4.52520
H     -1.48767     2.96251     4.51021
C     -1.01805    -2.81980    -2.83334
C     -2.26662    -3.53223    -3.26736
O     -0.32550    -3.15573    -1.90316
O     -0.76025    -1.75253    -3.59823
H      0.08095    -1.35320    -3.31414
H     -2.34647    -3.52092    -4.35104
H     -2.25642    -4.54919    -2.88816
H     -3.12627    -3.00828    -2.85411
