 48
-1375.5458219186278
C     -0.97946     0.01814     2.25931
C     -0.67059     1.39028     2.76476
O     -1.71554    -0.19702     1.30865
O     -0.36918    -0.94620     2.92132
H     -0.65634    -1.82415     2.55489
H     -0.77477     1.41784     3.84791
H      0.36051     1.62583     2.51209
H     -1.33393     2.10276     2.28851
C      1.88853    -0.30879    -2.38885
C      1.77276     0.43705    -3.67754
O      2.14783     0.25453    -1.32771
O      1.71092    -1.60123    -2.47677
H      1.76889    -2.02078    -1.57798
H      2.76076     0.80503    -3.94899
H      1.39339    -0.21393    -4.45702
H      1.12773     1.29881    -3.53492
C      0.70450     3.52456    -0.79733
C      0.42362     4.84876    -0.16494
O      0.34124     3.20179    -1.91250
O      1.37710     2.69529    -0.00203
H      1.55810     1.87452    -0.48921
H      0.45994     5.62765    -0.92147
H     -0.58585     4.80903     0.24330
H      1.13204     5.04412     0.63285
C     -2.76961     2.40150    -0.70849
C     -4.11323     1.76512    -0.51244
O     -2.23305     3.09850     0.12155
O     -2.23143     2.09739    -1.89286
H     -1.34136     2.49302    -1.96085
H     -3.99624     0.94089     0.18950
H     -4.79320     2.49076    -0.07287
H     -4.49742     1.39112    -1.45530
C      2.32581    -2.16026     0.94673
C      2.57170    -2.95772     2.18188
O      1.81553    -2.63286    -0.05778
O      2.69019    -0.89864     1.04062
H      2.51601    -0.44122     0.18618
H      2.80911    -3.98352     1.91847
H      3.36594    -2.51162     2.77063
H      1.65255    -2.95656     2.76517
C     -1.30018    -3.37165     0.63520
C     -1.15913    -4.67356    -0.08681
O     -1.05211    -3.24537     1.82574
O     -1.68313    -2.38418    -0.13924
H     -1.72887    -1.54070     0.38302
H     -1.96670    -4.79292    -0.80271
H     -0.21863    -4.64871    -0.63431
H     -1.14098    -5.49126     0.62565
