 40
-1146.2816871537093
C      2.03754    -0.66905    -1.24622
C      2.85172     0.35909    -1.97315
O      2.30653    -1.12810    -0.16272
O      0.94030    -1.01079    -1.93646
H      0.42079    -1.64065    -1.40828
H      3.11426    -0.00177    -2.96697
H      2.25591     1.26079    -2.09361
H      3.74613     0.58194    -1.40162
C     -0.72415    -3.38501     0.37990
C      0.69204    -3.65073     0.76883
O     -1.04040    -2.51696    -0.43098
O     -1.60033    -4.14754     0.98290
H     -2.53373    -3.92203     0.71743
H      1.03129    -2.85343     1.42609
H      0.77196    -4.60693     1.27367
H      1.32204    -3.61159    -0.11335
C      0.42249     1.87676     0.88520
C     -0.54277     0.74314     1.02810
O      0.52622     2.53001    -0.14417
O      1.14687     2.08997     1.95804
H      1.78801     2.83600     1.81069
H     -1.16252     0.88763     1.90891
H     -1.15178     0.66587     0.13721
H      0.02205    -0.17593     1.16061
C     -4.47482    -2.73601    -0.47710
C     -5.90592    -2.48043    -0.84128
O     -4.12790    -3.58012     0.33172
O     -3.62902    -1.95431    -1.12279
H     -2.70107    -2.15373    -0.86596
H     -6.55280    -3.12366    -0.25776
H     -6.14501    -1.43542    -0.65967
H     -6.04470    -2.67129    -1.90296
C      2.83055     4.83593     0.56486
C      3.74990     6.01734     0.44812
O      2.85279     4.09527     1.53630
O      2.01920     4.68255    -0.45824
H      1.44965     3.87424    -0.34043
H      3.56542     6.55195    -0.47628
H      3.59478     6.66812     1.30497
H      4.77810     5.66631     0.48752
