 64
-1834.0664104772713
C     -5.99500    -1.99132    -2.37671
C     -7.28934    -1.22533    -2.35553
O     -5.48716    -2.46494    -3.36065
O     -5.45698    -2.08067    -1.14735
H     -4.64261    -2.60526    -1.20820
H     -7.69047    -1.16715    -3.36091
H     -8.00157    -1.71660    -1.69482
H     -7.11421    -0.22409    -1.96555
C      3.51561    -0.56236    -0.91511
C      2.66683    -1.19728    -1.97023
O      4.59472    -0.04762    -1.15293
O      2.98480    -0.60426     0.29213
H      3.49526    -0.02581     0.91445
H      3.27579    -1.42689    -2.83934
H      2.18685    -2.08729    -1.57658
H      1.89025    -0.48726    -2.25086
C     -2.36617    -4.22921    -1.92055
C     -3.04797    -4.99831    -3.00293
O     -2.98754    -3.60441    -1.06390
O     -1.05916    -4.28364    -1.94729
H     -0.65738    -3.75282    -1.20598
H     -3.81314    -4.37418    -3.45478
H     -2.32461    -5.33293    -3.73806
H     -3.54181    -5.85802    -2.55300
C      5.16540     1.84271     1.50100
C      5.58704     3.00539     2.33838
O      4.29328     1.05671     1.84427
O      5.79891     1.75814     0.35456
H      5.42078     1.02071    -0.18989
H      6.66960     3.01613     2.44821
H      5.28464     3.92159     1.83733
H      5.10750     2.94181     3.30725
C      0.54860     2.45344     2.46705
C      1.85578     3.04845     2.87380
O      0.27301     2.17816     1.29927
O     -0.27964     2.23213     3.45462
H     -1.13262     1.83076     3.13650
H      1.81974     3.36913     3.90911
H      2.63882     2.30162     2.73546
H      2.08871     3.87153     2.20721
C     -2.95631     1.07343     1.46893
C     -4.30334     0.52187     1.14232
O     -2.49634     1.08574     2.59772
O     -2.29949     1.54561     0.42328
H     -1.41614     1.86313     0.70134
H     -5.06657     1.12793     1.62818
H     -4.44667     0.50797     0.06899
H     -4.36881    -0.48659     1.54028
C     -0.57249    -2.07230     0.73558
C      0.14770    -1.11980     1.62975
O      0.00306    -2.86474     0.00713
O     -1.88990    -1.97278     0.78498
H     -2.30575    -2.58986     0.13585
H      0.12638    -0.13384     1.17083
H     -0.34883    -1.06162     2.59123
H      1.17842    -1.42471     1.73633
C      2.98878     3.24282    -0.91879
C      3.77154     3.37049    -2.18717
O      3.20524     3.87571     0.08673
O      2.02714     2.31424    -1.00275
H      1.52162     2.31243    -0.17322
H      4.56696     2.62708    -2.17217
H      3.14321     3.18762    -3.05397
H      4.22004     4.35771    -2.23792
