 40
-1146.2906098102508
C      2.23994    -1.13235     1.25867
C      2.64237    -1.36306     2.68215
O      2.90036    -0.53606     0.44410
O      1.03065    -1.64890     0.99515
H      0.80714    -1.49369     0.06162
H      3.69222    -1.11559     2.79686
H      2.05089    -0.70725     3.31962
H      2.45305    -2.39224     2.97596
C      0.00939    -0.29264    -2.18347
C      1.42663     0.16112    -2.25613
O     -0.35206    -1.23826    -1.48064
O     -0.81571     0.39788    -2.91892
H     -1.75210     0.07332    -2.81682
H      1.55091     0.97374    -1.54286
H      2.09022    -0.64313    -1.96521
H      1.65970     0.52677    -3.25214
C      2.43750     2.48622     1.28262
C      3.87796     2.77699     1.00771
O      1.55034     2.63220     0.45558
O      2.22106     2.03826     2.50288
H      1.27466     1.76450     2.59931
H      3.97114     3.32039     0.07443
H      4.31434     3.33494     1.83218
H      4.40030     1.82527     0.92726
C     -3.65947    -1.39506    -2.00487
C     -5.08732    -1.85323    -1.93892
O     -3.29736    -0.43204    -2.66197
O     -2.84024    -2.12344    -1.27260
H     -1.90794    -1.80241    -1.36743
H     -5.71642    -1.17582    -2.50326
H     -5.16312    -2.86019    -2.34334
H     -5.40538    -1.89037    -0.89968
C     -0.94435     0.83360     1.65870
C     -2.14418    -0.05562     1.72570
O     -0.24429     1.08654     2.62386
O     -0.70557     1.30619     0.45175
H      0.12242     1.85746     0.46818
H     -1.87672    -1.01675     1.28959
H     -2.43864    -0.19922     2.75973
H     -2.95804     0.36554     1.14443
