 48
-1375.539849569389
C      1.12564    -0.00724     4.04441
C      1.34197     0.06678     5.52986
O      0.13390    -0.44011     3.51348
O      2.17837     0.46752     3.36019
H      1.98067     0.39886     2.41276
H      2.22851    -0.50359     5.80300
H      1.51032     1.10071     5.82705
H      0.47434    -0.32853     6.04623
C      0.47168    -0.55901     0.43826
C     -0.91741    -0.04721     0.59368
O      1.47021     0.15067     0.58589
O      0.55953    -1.80905     0.08695
H      1.50654    -2.09817    -0.05025
H     -1.14423     0.56520    -0.26823
H     -1.61490    -0.87612     0.62651
H     -0.98503     0.56644     1.48666
C     -0.48412     3.27711    -0.30879
C     -0.96007     4.28917    -1.30918
O     -0.94517     3.13764     0.79817
O      0.50881     2.51149    -0.78926
H      0.78230     1.89221    -0.09651
H     -0.16286     4.57155    -1.99012
H     -1.77213     3.84793    -1.88670
H     -1.34648     5.15982    -0.78713
C     -3.65435     1.11361    -1.01941
C     -4.32460     2.22700    -0.28581
O     -3.96103    -0.05806    -0.88112
O     -2.68464     1.51997    -1.81876
H     -2.24831     0.73926    -2.25081
H     -3.69980     2.50382     0.56191
H     -4.42362     3.09546    -0.93072
H     -5.29426     1.89958     0.07432
C      4.04151    -1.92305    -0.31655
C      5.41130    -2.45593    -0.60933
O      3.02857    -2.60081    -0.38861
O      4.03650    -0.64814     0.02337
H      3.12418    -0.34400     0.21684
H      5.84037    -1.90574    -1.44388
H      6.05320    -2.29899     0.25427
H      5.35216    -3.51067    -0.84812
C     -1.66174    -1.75693    -2.54423
C     -0.83384    -2.86867    -3.10479
O     -1.47702    -0.58347    -2.83191
O     -2.58902    -2.16021    -1.70374
H     -3.13568    -1.39229    -1.39281
H     -0.38633    -2.56106    -4.04382
H     -0.04241    -3.08122    -2.38769
H     -1.43591    -3.76341    -3.22916
