 64
-1834.0684971025257
C     -4.56638    -3.89697    -0.69667
C     -5.67082    -4.72439    -1.28222
O     -4.56302    -3.54717     0.47372
O     -3.61791    -3.58188    -1.55517
H     -2.90479    -3.05946    -1.12013
H     -5.52210    -4.86008    -2.34704
H     -5.68985    -5.68770    -0.77830
H     -6.62105    -4.23609    -1.08407
C      3.84752     2.10953     0.57448
C      3.76845     3.59533     0.51849
O      3.16203     1.43152     1.33878
O      4.70860     1.57781    -0.24749
H      4.72436     0.58674    -0.14208
H      2.90326     3.92770     1.07841
H      4.68255     4.01105     0.94051
H      3.69487     3.90434    -0.51874
C      1.27891    -1.01905    -1.89848
C      2.28322    -0.16855    -2.61247
O      1.54043    -2.05638    -1.34193
O      0.04330    -0.48784    -1.91658
H     -0.55198    -1.05865    -1.39959
H      1.95444     0.03133    -3.62962
H      2.37169     0.78479    -2.09719
H      3.24230    -0.67301    -2.61713
C      3.87775    -1.71542     0.70646
C      3.82085    -3.20310     0.60717
O      4.63171    -1.03184     0.02994
O      3.03234    -1.19593     1.57760
H      3.08293    -0.21340     1.54176
H      4.76846    -3.58094     0.23840
H      3.56822    -3.63283     1.57143
H      3.03570    -3.45236    -0.10493
C     -1.59929    -2.02270     0.89243
C     -0.42435    -1.37412     1.54369
O     -1.74458    -2.10368    -0.32608
O     -2.48621    -2.48165     1.73482
H     -3.24980    -2.90594     1.26171
H     -0.76116    -0.47007     2.04593
H      0.01916    -2.04540     2.27669
H      0.31325    -1.11973     0.78955
C      0.42500     2.77405    -1.86719
C     -0.07899     2.55823    -3.26418
O      1.59139     2.79341    -1.56259
O     -0.55720     2.93175    -0.97100
H     -0.16294     3.09402    -0.07258
H      0.57133     3.06961    -3.97053
H     -0.05209     1.49418    -3.48573
H     -1.10136     2.91009    -3.37009
C      0.03605     2.66282     2.36156
C     -1.19890     2.82080     3.18298
O      0.31575     3.36691     1.40335
O      0.81578     1.67503     2.75482
H      1.61476     1.63449     2.19493
H     -1.01563     2.48738     4.19935
H     -1.53098     3.85387     3.15841
H     -1.97311     2.19496     2.73989
C     -3.13853     0.94437    -0.10095
C     -4.39903     0.12771    -0.10366
O     -2.41461     1.05499     0.86305
O     -2.89139     1.51215    -1.27734
H     -2.05944     2.02480    -1.21597
H     -5.17980     0.60810    -0.68625
H     -4.19116    -0.84200    -0.55136
H     -4.72542    -0.03837     0.91625
