 40
-1146.2830920794484
C      3.24856    -2.99115    -0.91077
C      3.18876    -4.30000    -0.17648
O      4.20722    -2.25975    -0.95425
O      2.08566    -2.71231    -1.51781
H      2.17831    -1.86072    -1.97459
H      2.95305    -5.10380    -0.87106
H      4.14051    -4.48557     0.30676
H      2.39372    -4.26244     0.56581
C      2.68901     0.82247    -2.36705
C      4.12057     0.48453    -2.60934
O      1.78141     0.00652    -2.52563
O      2.47663     2.05239    -1.96976
H      1.50648     2.21899    -1.81358
H      4.72884     1.38169    -2.59118
H      4.44612    -0.21609    -1.84131
H      4.20144    -0.03126    -3.56202
C     -0.93260    -0.20786     1.55392
C      0.17781    -0.54736     0.61352
O     -2.00517     0.23037     1.15541
O     -0.65748    -0.41254     2.81817
H     -1.42595    -0.16598     3.39865
H     -0.23047    -1.12455    -0.20900
H      0.58461     0.37257     0.20267
H      0.96243    -1.10049     1.11188
C     -1.01842     1.86274    -2.04718
C     -2.44255     2.30666    -1.96293
O     -0.09354     2.47801    -1.54150
O     -0.85793     0.72163    -2.69092
H      0.09455     0.47667    -2.70415
H     -2.88706     1.83961    -1.08439
H     -2.48415     3.38434    -1.84526
H     -2.98808     1.98277    -2.84369
C     -3.79987     0.65088     3.95970
C     -4.93131     0.98864     4.88700
O     -2.72706     0.23807     4.37367
O     -4.07340     0.83915     2.68770
H     -3.29396     0.60429     2.11494
H     -4.59585     1.74713     5.58993
H     -5.78872     1.34150     4.32597
H     -5.19013     0.10332     5.46253
