 40
-1146.2822684541368
C      1.83508    -2.00070     0.62149
C      1.77028    -3.49062     0.63089
O      2.58507    -1.38411    -0.12364
O      1.00297    -1.40844     1.45108
H      1.10712    -0.42697     1.39918
H      1.13276    -3.79122    -0.19981
H      2.76390    -3.90281     0.48119
H      1.32524    -3.84110     1.55578
C      2.07520     1.80947     0.50708
C      2.20161     3.29902     0.48427
O      1.34349     1.22435     1.29254
O      2.78609     1.20372    -0.41310
H      2.70772     0.21500    -0.31727
H      1.44440     3.68132    -0.19892
H      2.01111     3.69859     1.47509
H      3.18112     3.59648     0.12322
C     -0.21957     0.35513    -1.91429
C      0.49325    -0.45258    -2.94644
O     -0.93875    -0.11160    -1.05431
O      0.03044     1.65385    -2.00753
H     -0.49162     2.13706    -1.33742
H      0.04460    -1.43840    -3.00016
H      0.45817     0.04961    -3.91018
H      1.53498    -0.54957    -2.64549
C     -1.89795     2.91769     0.95938
C     -1.76951     1.63289     1.70761
O     -1.37783     3.17491    -0.10790
O     -2.65850     3.82464     1.59021
H     -2.68136     4.61323     1.03335
H     -2.74776     1.26033     2.00158
H     -1.25742     0.90666     1.08752
H     -1.18109     1.78277     2.61055
C     -1.81406    -3.30587    -0.33342
C     -2.57203    -4.50453     0.17099
O     -0.88603    -3.37653    -1.10488
O     -2.26284    -2.16549     0.19251
H     -1.76019    -1.42632    -0.19586
H     -2.90516    -5.10412    -0.67326
H     -1.89129    -5.11823     0.76029
H     -3.41452    -4.19742     0.78057
