 48
-1375.5362102494605
C     -1.04396    -1.00630     3.03239
C     -2.13352    -0.41605     3.87940
O     -0.67863    -2.15774     3.07781
O     -0.53097    -0.11122     2.17936
H      0.18863    -0.52537     1.67579
H     -1.81956     0.54374     4.28436
H     -3.01013    -0.25123     3.25457
H     -2.38220    -1.10491     4.67972
C      4.44268     0.75611    -0.54967
C      5.53032     1.76197    -0.75343
O      4.15284    -0.08979    -1.38227
O      3.81155     0.87907     0.59865
H      3.07113     0.22689     0.64581
H      6.00846     1.99508     0.19301
H      6.24802     1.38792    -1.47623
H      5.07945     2.67179    -1.14577
C      0.86473     2.54473    -1.77275
C      0.81809     1.17116    -2.35657
O     -0.07000     3.29060    -1.59354
O      2.11816     2.90998    -1.44376
H      2.05878     3.78415    -1.04102
H      1.18135     1.20355    -3.38253
H      1.48189     0.52615    -1.78907
H     -0.19318     0.78611    -2.33524
C     -3.18284     1.69074    -0.92943
C     -4.58889     1.46817    -0.47874
O     -2.42098     0.80124    -1.26988
O     -2.83004     2.96862    -0.93079
H     -1.89174     3.04827    -1.19053
H     -4.59261     0.75178     0.33999
H     -5.04397     2.40756    -0.18717
H     -5.14637     1.01063    -1.29405
C      1.83008    -1.95364     0.04316
C      0.85767    -3.05068     0.31791
O      1.77532    -0.85619     0.60143
O      2.73917    -2.23897    -0.85080
H      3.30837    -1.44291    -1.04760
H      0.52693    -2.99447     1.34857
H     -0.01226    -2.89457    -0.31801
H      1.29602    -4.01938     0.09591
C     -3.20272    -2.17889     0.43105
C     -3.13728    -3.63233     0.79828
O     -4.03319    -1.40800     0.84672
O     -2.20504    -1.82503    -0.39014
H     -2.32304    -0.89329    -0.66970
H     -3.99630    -3.88747     1.40907
H     -3.11528    -4.24985    -0.09794
H     -2.22303    -3.81127     1.35928
