 64
-1834.0720843119464
C     -2.01155    -1.21293     2.34271
C     -3.22597    -1.33970     3.19942
O     -1.17256    -0.34556     2.47830
O     -1.95144    -2.12541     1.38646
H     -1.10677    -2.04747     0.90013
H     -3.08985    -0.78230     4.12018
H     -4.06710    -0.92007     2.65069
H     -3.43763    -2.38407     3.40874
C      2.72540    -2.80046     2.38723
C      3.24314    -2.83882     3.78983
O      3.36922    -2.38300     1.44083
O      1.48634    -3.25190     2.27882
H      1.13279    -3.01411     1.40062
H      2.90463    -1.93043     4.28817
H      2.83248    -3.69445     4.31710
H      4.32807    -2.86007     3.79237
C     -0.07611     2.73402    -3.03705
C      0.44585     3.37273    -4.28468
O      0.45822     2.81455    -1.94711
O     -1.20247     2.05478    -3.23541
H     -1.48021     1.64142    -2.39763
H      0.78541     4.37997    -4.05840
H      1.30409     2.79517    -4.62431
H     -0.32107     3.38362    -5.05119
C      1.04423    -1.28993    -0.70113
C      0.34990    -0.39347    -1.67069
O      0.45290    -2.08796     0.02181
O      2.35079    -1.17673    -0.68910
H      2.75195    -1.65540     0.07914
H     -0.66114    -0.75186    -1.83735
H      0.29733     0.60311    -1.24853
H      0.91444    -0.34215    -2.59329
C      1.74564     1.01433     1.62264
C      3.17230     1.46733     1.73131
O      0.93604     1.43171     0.82835
O      1.45518     0.06401     2.51799
H      0.49273    -0.12636     2.47237
H      3.39910     2.16156     0.93167
H      3.34101     1.94358     2.69758
H      3.82721     0.59981     1.66349
C     -4.22806    -1.64181    -0.84491
C     -4.61495    -3.08319    -0.96908
O     -4.78979    -0.86108    -0.09336
O     -3.21206    -1.29875    -1.61613
H     -2.91535    -0.38697    -1.39754
H     -5.58177    -3.25095    -0.50731
H     -4.63136    -3.37656    -2.01536
H     -3.86020    -3.68455    -0.46431
C     -2.60742     1.65556     0.20187
C     -1.82716     2.78602     0.77671
O     -2.27455     1.04785    -0.81131
O     -3.68744     1.34632     0.88070
H     -4.14834     0.57079     0.46958
H     -0.96361     2.97916     0.15242
H     -2.46539     3.66319     0.86951
H     -1.49097     2.49828     1.76917
C      3.35188     1.35708    -2.52122
C      4.77488     0.87609    -2.47660
O      2.59748     1.15731    -3.44323
O      3.02341     2.03100    -1.41636
H      2.06603     2.23943    -1.41938
H      5.10303     0.62285    -3.47979
H      5.41951     1.63769    -2.04257
H      4.82736    -0.01309    -1.84939
