 64
-1834.0755299630637
C     -2.36617    -0.67094    -1.30786
C     -2.98124     0.64154    -1.66430
O     -1.64172    -0.81147    -0.33147
O     -2.65262    -1.65465    -2.12556
H     -2.19622    -2.47740    -1.81855
H     -3.77600     0.86867    -0.95795
H     -2.22514     1.41510    -1.56415
H     -3.37591     0.62038    -2.67368
C      0.90155     3.00645    -1.92270
C      0.71275     4.47385    -1.68744
O      0.20494     2.36025    -2.68865
O      1.87822     2.47495    -1.21425
H      2.00829     1.53094    -1.47470
H      0.27652     4.60751    -0.70039
H      1.67504     4.97854    -1.70725
H      0.04584     4.88357    -2.43822
C      1.63534    -2.55549     2.58597
C      0.76163    -3.15575     3.64197
O      1.74691    -1.35383     2.41852
O      2.27106    -3.44487     1.84848
H      2.83542    -2.97167     1.18244
H      0.41220    -2.37647     4.30990
H     -0.09288    -3.62751     3.16273
H      1.30962    -3.91578     4.19333
C      1.38235    -0.69232    -2.61779
C      1.53860    -2.17211    -2.76773
O      2.22950     0.01691    -2.09806
O      0.25241    -0.23515    -3.10700
H      0.20565     0.74989    -2.97968
H      2.25133    -2.54234    -2.03947
H      0.56731    -2.64150    -2.65558
H      1.90844    -2.37228    -3.77358
C     -0.95185    -3.97834    -0.12535
C     -0.45393    -5.31081     0.34132
O     -1.36726    -3.78603    -1.25697
O     -0.88588    -3.03458     0.78947
H     -1.16082    -2.15876     0.39559
H      0.63058    -5.27549     0.41425
H     -0.85457    -5.53016     1.32641
H     -0.74582    -6.07763    -0.36837
C     -4.21946     3.70168     1.45971
C     -5.57547     4.33691     1.33271
O     -3.82496     3.20842     2.50303
O     -3.51276     3.73526     0.34752
H     -2.59751     3.38183     0.49679
H     -5.89146     4.35100     0.29521
H     -6.28570     3.79919     1.95248
H     -5.51131     5.35935     1.69941
C     -0.77957     2.03298     1.70444
C      0.53936     1.33486     1.76298
O     -1.09591     2.77593     0.78385
O     -1.56707     1.77614     2.72385
H     -2.40895     2.29521     2.65646
H      0.48949     0.45421     1.12744
H      1.30893     1.99788     1.38660
H      0.74866     1.00242     2.77329
C      4.13838    -0.90927     0.26339
C      5.33521    -0.37573    -0.45627
O      3.80528    -2.08366     0.20882
O      3.47734     0.00537     0.93715
H      2.73395    -0.40697     1.43946
H      5.79581     0.40939     0.13469
H      6.03472    -1.17906    -0.66050
H      4.99668     0.05479    -1.39658
