 72
-2063.325875618887
C      3.44420    -0.03555     0.29376
C      3.91486    -0.08161     1.71847
O      2.96236    -0.97136    -0.29939
O      3.60925     1.17270    -0.25940
H      3.26492     1.15217    -1.16626
H      4.86629     0.43528     1.81756
H      3.18598     0.41620     2.35554
H      4.00232    -1.11726     2.02842
C     -0.64704     2.78963    -1.26164
C      0.06305     3.82846    -2.07199
O     -1.85911     2.77490    -1.10077
O      0.15393     1.89051    -0.73552
H     -0.35972     1.18011    -0.30311
H     -0.17444     3.67433    -3.12229
H     -0.28877     4.81742    -1.79271
H      1.13439     3.74737    -1.93224
C     -2.41063     0.78103     1.81579
C     -3.12358     0.01523     2.87930
O     -1.24091     0.60911     1.50755
O     -3.16911     1.68777     1.21922
H     -2.67767     2.11399     0.49352
H     -4.19346     0.18892     2.81882
H     -2.89058    -1.03928     2.78270
H     -2.75255     0.33102     3.85078
C     -2.57977    -0.49575    -1.76992
C     -3.26320    -1.82163    -1.91748
O     -1.42039    -0.36434    -1.44450
O     -3.38650     0.52955    -2.04422
H     -2.91196     1.36043    -1.87673
H     -3.07221    -2.42440    -1.03402
H     -4.32785    -1.67992    -2.06874
H     -2.83283    -2.34005    -2.77314
C      0.27404    -1.40649     4.15763
C      1.35844    -2.22943     4.77990
O     -0.83609    -1.28897     4.61381
O      0.67576    -0.83078     3.01758
H     -0.05352    -0.32407     2.61776
H      1.24706    -3.25807     4.43989
H      2.33582    -1.86698     4.47889
H      1.25166    -2.20818     5.86008
C     -2.35543    -4.18037     4.21898
C     -2.88107    -4.15989     5.62070
O     -1.30881    -4.73205     3.91282
O     -3.11771    -3.54126     3.35672
H     -2.65082    -3.45853     2.48726
H     -2.66485    -3.18021     6.04401
H     -3.95797    -4.30145     5.61960
H     -2.38690    -4.92516     6.20840
C      2.82497     4.30229    -4.98617
C      3.21673     5.61965    -5.58226
O      1.80791     3.71374    -5.32265
O      3.65634     3.85078    -4.07053
H      3.34746     2.98663    -3.70593
H      3.31101     5.50625    -6.65911
H      2.41978     6.33606    -5.39840
H      4.14819     5.96796    -5.15216
C      1.79003     0.91686    -3.46147
C      1.36500    -0.40004    -2.90929
O      2.75424     1.55028    -3.03627
O      1.04247     1.34790    -4.44910
H      1.37020     2.21457    -4.80907
H      1.11079    -0.28395    -1.86419
H      0.50028    -0.76147    -3.45143
H      2.19518    -1.09877    -2.95782
C     -0.50109    -3.27025     1.06313
C      0.27353    -2.59185    -0.01168
O     -1.71378    -3.14929     1.18233
O      0.22080    -4.00463     1.87996
H     -0.35014    -4.36078     2.60833
H     -0.17924    -2.82620    -0.97038
H      0.17197    -1.52070     0.11411
H      1.31813    -2.86612     0.01153
