 56
-1604.7991057177353
C     -2.72922     0.95718    -1.14637
C     -4.06867     0.39077    -1.51814
O     -1.70903     0.75341    -1.76035
O     -2.79194     1.69054    -0.02964
H     -1.90971     2.05867     0.14430
H     -4.24464    -0.50040    -0.91775
H     -4.85673     1.10868    -1.30667
H     -4.06512     0.11083    -2.56635
C      2.73320    -1.38984    -1.06799
C      2.65606    -2.00543    -2.43253
O      3.12136    -1.95962    -0.07776
O      2.31423    -0.10689    -1.05857
H      2.42859     0.24457    -0.15795
H      3.27630    -2.89603    -2.45270
H      1.62552    -2.27868    -2.64476
H      2.98132    -1.29461    -3.18864
C      0.90144     2.79870    -0.80464
C      0.92297     2.57218    -2.27436
O     -0.09446     2.64789    -0.10081
O      2.04671     3.21107    -0.30805
H      0.78387     3.46635     5.04480
H      1.63694     1.78094    -2.48363
H     -0.06230     2.27910    -2.61327
H      1.25977     3.48192    -2.76764
C     -2.75139    -4.88910    -2.35395
C     -3.39800    -6.00999    -3.11745
O     -1.60459    -4.53206    -2.58346
O     -3.51885    -4.34495    -1.43842
H     -3.03993    -3.61535    -0.95880
H     -3.34223    -5.79190    -4.18089
H     -2.83443    -6.92324    -2.94156
H     -4.42840    -6.13678    -2.80592
C     -1.07668    -2.11152    -0.33279
C     -0.40707    -1.06089     0.48519
O     -2.24398    -2.43420    -0.16644
O     -0.30657    -2.65384    -1.25098
H     -0.78681    -3.36104    -1.76023
H     -0.17048    -0.22108    -0.15643
H     -1.07538    -0.74562     1.27558
H      0.52667    -1.44437     0.88528
C      0.51172     3.82169     2.98719
C      0.26042     4.18481     4.41755
O      1.64878     3.68204     2.54450
O     -0.56243     3.65796     2.25745
H     -0.31963     3.33249     1.35252
H      2.06112     3.09363     0.66180
H      0.68416     5.16774     4.61109
H     -0.80093     4.18604     4.63834
C      2.72745     0.63180     2.63652
C      3.12817    -0.75422     3.02808
O      2.45814     0.98461     1.50289
O      2.67529     1.46603     3.66878
H      2.40844     2.34868     3.33699
H      3.25864    -1.37170     2.14867
H      4.04933    -0.71791     3.60624
H      2.35445    -1.18220     3.66488
