 48
-1375.532715574777
C      0.25892    -0.33696     0.95282
C      1.22117    -0.93483     1.92492
O      0.58609     0.40805     0.04193
O     -0.99429    -0.70219     1.16768
H     -1.58885    -0.28021     0.51824
H      1.44888    -1.95209     1.61156
H      2.14549    -0.37211     1.92600
H      0.76653    -0.97076     2.91048
C      6.74586    -2.73339     1.29794
C      7.70621    -3.55645     2.10578
O      7.09230    -2.14255     0.28674
O      5.51937    -2.70917     1.77496
H      4.93144    -2.14759     1.20495
H      7.20333    -4.00819     2.95300
H      8.13843    -4.32147     1.46556
H      8.51860    -2.91677     2.44182
C     -2.33127     1.67631    -1.29824
C     -3.22195     2.55014    -2.10017
O     -2.72039     0.70408    -0.64271
O     -1.06929     2.02613    -1.31876
H     -0.49511     1.40555    -0.79825
H     -2.64017     3.07260    -2.85199
H     -4.01873     1.95928    -2.53968
H     -3.66361     3.27052    -1.41101
C     -3.53144     3.01265     1.95330
C     -3.56951     3.62983     3.32166
O     -3.63954     3.61830     0.91662
O     -3.35061     1.68255     2.01249
H     -3.35089     1.33811     1.10739
H     -4.41922     3.23778     3.87869
H     -2.66586     3.36989     3.87003
H     -3.65486     4.70647     3.22969
C      4.24593    -0.67450    -0.77869
C      3.27342     0.08914    -1.62115
O      3.92315    -1.21309     0.27481
O      5.46288    -0.71449    -1.26899
H      6.07054    -1.24103    -0.68383
H      2.82982     0.88715    -1.03449
H      3.77149     0.47937    -2.50120
H      2.46012    -0.57542    -1.90062
C     -5.67488    -0.71868    -2.39246
C     -6.66955    -1.75837    -2.82325
O     -5.66305     0.42914    -2.76206
O     -4.77785    -1.22378    -1.53123
H     -4.16322    -0.51919    -1.27634
H     -7.17787    -2.16547    -1.95145
H     -7.38731    -1.30936    -3.49958
H     -6.15285    -2.57916    -3.31719
