 40
-1146.2840934978735
C      1.42213    -1.91979     0.74654
C      0.88876    -2.92547     1.71451
O      1.37894    -2.07585    -0.46493
O      1.93321    -0.84660     1.31191
H      2.24236    -0.22001     0.61768
H     -0.08107    -2.58018     2.06933
H      0.76937    -3.88410     1.22214
H      1.55182    -3.00865     2.57051
C      2.84894     0.54539    -1.81570
C      3.47072     1.49485    -2.78605
O      2.72508     0.80446    -0.61874
O      2.44208    -0.58076    -2.33782
H      2.06063    -1.18184    -1.63935
H      2.86497     2.39791    -2.81432
H      4.46150     1.76851    -2.43020
H      3.52717     1.04053    -3.76887
C      1.10942     3.73978    -0.49641
C      0.53495     5.08478    -0.15156
O      1.02013     3.22820    -1.58776
O      1.71454     3.16307     0.54984
H      2.07743     2.30544     0.27145
H      0.73040     5.77972    -0.96397
H     -0.54549     4.98597    -0.05511
H      0.95023     5.44847     0.78188
C     -1.77453    -0.03527    -0.50058
C     -0.87518     0.61712    -1.49431
O     -2.90084    -0.42430    -0.76259
O     -1.21496    -0.15999     0.68765
H     -1.78806    -0.70829     1.28257
H     -0.40273    -0.16046    -2.09002
H     -1.43670     1.26320    -2.15877
H     -0.10478     1.17890    -0.98635
C     -3.79680    -2.16134     1.93357
C     -4.58987    -3.01056     2.88601
O     -2.68013    -1.74368     2.21414
O     -4.40107    -1.92140     0.79476
H     -3.83650    -1.35440     0.19922
H     -4.05860    -3.94559     3.04805
H     -4.65696    -2.50170     3.84398
H     -5.57748    -3.20499     2.48483
