 48
-1375.5432729871798
C     -1.31304    -0.50286     1.96423
C     -0.12460    -0.06361     2.75973
O     -1.25979    -1.24478     1.01068
O     -2.45020     0.03981     2.40709
H     -3.18647    -0.30396     1.87041
H     -0.34228    -0.10239     3.82534
H      0.71657    -0.70251     2.52193
H      0.11406     0.96414     2.49421
C      2.19827    -1.84246    -0.95034
C      0.86058    -2.42075    -1.25455
O      3.07267    -1.71840    -1.79565
O      2.34895    -1.47015     0.30647
H      3.28310    -1.17891     0.47675
H      0.39077    -1.81400    -2.02470
H      0.99333    -3.42636    -1.65068
H      0.24479    -2.43232    -0.36565
C     -2.70324     2.30681     0.12206
C     -4.14686     2.61852     0.34224
O     -2.31473     1.56671    -0.77065
O     -1.90194     2.87048     0.99115
H     -0.95417     2.69583     0.75024
H     -4.69564     2.51596    -0.58800
H     -4.53182     1.89364     1.05808
H     -4.26325     3.61529     0.75625
C      0.94786     1.74503    -0.68137
C      2.38565     1.70067    -1.09463
O      0.56343     2.44671     0.24133
O      0.15743     0.95537    -1.37039
H     -0.79489     1.11962    -1.12815
H      2.96446     1.29185    -0.27198
H      2.50944     1.08013    -1.97228
H      2.74297     2.70989    -1.28045
C      5.63853    -0.35676    -0.21461
C      6.96317     0.28407     0.07989
O      4.84244    -0.63138     0.67245
O      5.40860    -0.56993    -1.48974
H      4.53344    -1.02819    -1.61775
H      6.78466     1.25885     0.52843
H      7.49527    -0.31821     0.81138
H      7.54360     0.38843    -0.82920
C     -4.64931    -1.43615    -0.24415
C     -3.46675    -1.67188    -1.12276
O     -4.64048    -0.83758     0.81173
O     -5.78521    -1.96637    -0.72760
H     -6.48376    -1.77129    -0.09014
H     -2.71504    -0.91746    -0.92011
H     -3.02933    -2.63751    -0.87579
H     -3.75359    -1.67655    -2.17028
