 72
-2063.328929595965
C      6.04651     1.17071     0.00828
C      7.20175     0.94588     0.93473
O      5.89693     0.55343    -1.03332
O      5.20794     2.09647     0.43130
H      4.48082     2.22944    -0.21935
H      7.80043     1.85257     0.99133
H      6.83130     0.73504     1.93504
H      7.80842     0.12365     0.57546
C     -2.18096     2.13752    -2.50849
C     -3.49791     1.49099    -2.83711
O     -1.14603     1.50554    -2.40179
O     -2.26297     3.44714    -2.35700
H     -1.39309     3.78828    -2.06290
H     -3.41273     0.98832    -3.79860
H     -3.72336     0.73494    -2.08824
H     -4.28319     2.23772    -2.87196
C      0.36062     4.28604    -0.27923
C     -0.59074     5.07237     0.56272
O      0.20613     4.07642    -1.46835
O      1.40461     3.82590     0.39639
H      1.97424     3.31470    -0.20143
H     -1.14124     4.37607     1.19083
H     -0.04566     5.76071     1.20323
H     -1.28562     5.60347    -0.07805
C     -5.43287    -2.80085     1.10381
C     -6.70274    -2.93896     1.89200
O     -4.76999    -3.77601     0.77221
O     -5.10787    -1.56477     0.81228
H     -4.24976    -1.53206     0.30384
H     -7.11014    -1.96269     2.12611
H     -7.41699    -3.51926     1.31228
H     -6.49278    -3.49539     2.80215
C      2.09587    -1.56114     1.41288
C      2.97239    -0.48272     0.86703
O      1.57172    -2.40832     0.70672
O      1.94084    -1.51692     2.71918
H      1.27870    -2.19334     3.00914
H      2.35861     0.39171     0.66844
H      3.73743    -0.21101     1.58370
H      3.41264    -0.80734    -0.06605
C     -2.35375    -2.51908    -1.09374
C     -1.13434    -2.39490    -1.94628
O     -2.85510    -1.56687    -0.51388
O     -2.83983    -3.73535    -1.02599
H     -3.59427    -3.76447    -0.38409
H     -1.27889    -2.91905    -2.88811
H     -0.91381    -1.34709    -2.11446
H     -0.30020    -2.85970    -1.42375
C      3.06366     1.71976    -2.39592
C      1.87963     1.84638    -3.28842
O      3.18054     2.34429    -1.34192
O      3.97432     0.88100    -2.81946
H      4.72227     0.80237    -2.16949
H      1.27835     0.94310    -3.22398
H      1.27172     2.68128    -2.97163
H      2.20741     1.95879    -4.31840
C     -0.81976     1.16850     0.88187
C     -0.69439     0.39510     2.15454
O     -1.62032     2.04654     0.69521
O      0.07158     0.77729    -0.04276
H     -0.19526     1.14922    -0.91196
H     -0.66139    -0.66920     1.94531
H      0.23443     0.66199     2.65078
H     -1.53661     0.60889     2.80392
C     -0.78697    -3.72771     2.61568
C     -1.98719    -4.50418     3.06055
O     -0.05167    -3.13332     3.38698
O     -0.60704    -3.75377     1.31008
H      0.22500    -3.27349     1.06695
H     -2.26705    -4.19869     4.06228
H     -2.80040    -4.35427     2.35841
H     -1.73018    -5.56230     3.06732
