 64
-1834.055533970697
C     -1.04560     0.31674    -2.43960
C      0.34867     0.22126    -2.96649
O     -1.82299     1.20154    -2.75798
O     -1.37379    -0.64889    -1.59409
H     -2.34679    -0.65200    -1.43397
H      0.58719    -0.81024    -3.20335
H      0.44979     0.85871    -3.84028
H      1.03328     0.55580    -2.19225
C      4.26568     2.72001    -0.00081
C      3.78206     4.12733     0.10978
O      3.49460     1.76457    -0.06973
O      5.56491     2.58462    -0.01674
H      5.82172     1.62889    -0.10454
H      3.13002     4.33632    -0.73498
H      3.16974     4.21770     1.00327
H      4.61396     4.82186     0.13487
C      0.99488    -2.92471    -0.50915
C     -0.39955    -3.25135    -0.06465
O      1.44496    -3.10155    -1.61245
O      1.72235    -2.37106     0.48783
H      2.58336    -2.09828     0.13543
H     -0.91500    -3.82554    -0.82548
H     -0.38560    -3.78777     0.87955
H     -0.94024    -2.32193     0.09309
C      5.48562    -0.95437    -0.28117
C      5.92803    -2.37361    -0.41352
O      6.24358    -0.00400    -0.27920
O      4.16889    -0.82227    -0.15777
H      3.92507     0.13419    -0.11477
H      5.73293    -2.89454     0.52208
H      5.35031    -2.86717    -1.19111
H      6.98684    -2.40675    -0.63953
C     -4.61328     0.54779    -1.16353
C     -5.91499     0.67446    -0.43453
O     -4.03584    -0.53010    -1.30029
O     -4.14894     1.67307    -1.63369
H     -3.26332     1.54529    -2.07210
H     -6.27030     1.69823    -0.47849
H     -6.63716    -0.00377    -0.88220
H     -5.75980     0.36490     0.59674
C     -0.85369    -0.51773     2.54079
C      0.45567     0.10422     2.93664
O     -1.22921    -1.59395     2.93807
O     -1.55406     0.23284     1.67652
H     -2.44686    -0.16585     1.56889
H      1.13989     0.06472     2.09100
H      0.31930     1.14758     3.20886
H      0.88225    -0.45605     3.76372
C     -0.04830     2.90816     0.40345
C     -1.50139     2.90998     0.05484
O      0.45484     3.47682     1.33798
O      0.67652     2.17000    -0.46493
H      1.60881     2.20426    -0.19925
H     -1.65629     3.32374    -0.93885
H     -1.87276     1.89117     0.04547
H     -2.05838     3.48326     0.78773
C     -3.97739    -2.22933     1.49043
C     -3.96648    -3.17023     2.64701
O     -3.92871    -1.01439     1.58806
O     -4.03912    -2.84016     0.31402
H     -4.06320    -2.15689    -0.37693
H     -4.69382    -2.84125     3.38546
H     -4.17432    -4.17982     2.31281
H     -2.98212    -3.11798     3.10991
