 48
-1375.5428117467154
C      0.14986    -2.87946     1.70128
C      1.50752    -3.49974     1.62534
O     -0.73913    -3.14627     0.90774
O      0.00673    -2.01565     2.68271
H     -0.86016    -1.55856     2.60438
H      2.01287    -3.43431     2.58172
H      1.42338    -4.53054     1.29803
H      2.09025    -2.95977     0.88085
C      4.48039    -1.11579    -0.02905
C      5.92062    -1.16899     0.39135
O      4.00315    -1.92917    -0.80816
O      3.79580    -0.13571     0.51430
H      2.84557    -0.16422     0.22425
H      6.14318    -0.37073     1.08958
H      6.11943    -2.13804     0.84245
H      6.54797    -1.08746    -0.49303
C     -0.84199     2.31188     1.03324
C      0.11472     3.41904     0.74591
O     -1.66971     1.89483     0.24297
O     -0.71088     1.79800     2.25288
H     -1.29951     1.03064     2.33143
H      0.69815     3.65748     1.62866
H      0.76567     3.11047    -0.07000
H     -0.42973     4.28700     0.38555
C     -1.48786     3.63692    -2.86336
C     -1.80340     3.92317    -4.30823
O     -0.70717     4.26685    -2.19437
O     -2.18261     2.57960    -2.41598
H     -1.96604     2.42361    -1.47657
H     -2.86661     4.12770    -4.41998
H     -1.22203     4.77479    -4.64236
H     -1.57065     3.04891    -4.91342
C      0.89467    -0.82741    -1.27146
C     -0.49391    -0.67412    -1.79564
O      1.27219    -0.30901    -0.22954
O      1.65753    -1.59822    -2.01082
H      2.55415    -1.70670    -1.59717
H     -1.00131     0.11332    -1.25213
H     -0.47917    -0.45045    -2.85934
H     -1.02322    -1.61456    -1.64837
C     -3.19295    -0.96791     1.46577
C     -4.45412    -0.17969     1.30829
O     -2.34616    -0.70390     2.31455
O     -3.06105    -1.93598     0.59264
H     -2.21303    -2.43351     0.73857
H     -5.25554    -0.81604     0.94851
H     -4.71379     0.29443     2.24819
H     -4.26423     0.59270     0.56329
