 48
-1375.5381317968593
C     -1.52964    -1.49502    -1.18972
C     -0.52495    -0.49621    -1.66466
O     -1.41899    -2.05118    -0.10269
O     -2.52494    -1.70711    -2.01448
H     -3.17931    -2.35108    -1.62911
H      0.46639    -0.83466    -1.38457
H     -0.60443    -0.34169    -2.73533
H     -0.70779     0.44144    -1.14717
C      2.09843    -0.34239     1.61495
C      0.71908    -0.01078     2.06461
O      2.48872    -0.09841     0.47077
O      2.85432    -0.91785     2.50801
H      3.75581    -1.12980     2.13453
H      0.65165    -0.06367     3.14642
H      0.44649     0.97062     1.69379
H      0.03516    -0.73121     1.61590
C      0.91975     2.81901    -0.96443
C      0.67543     4.04310    -1.78252
O      0.11412     2.33751    -0.18935
O      2.11574     2.27414    -1.16642
H      2.22149     1.50292    -0.58519
H      0.41380     4.86735    -1.12445
H      1.54956     4.27941    -2.37878
H     -0.19334     3.87996    -2.41579
C     -2.91018     4.24021    -0.02600
C     -4.27433     4.68854     0.42671
O     -2.26632     4.77365    -0.89451
O     -2.49715     3.16430     0.66291
H     -1.61661     2.89589     0.34483
H     -4.57125     5.56437    -0.13851
H     -4.99244     3.88441     0.27729
H     -4.25135     4.91654     1.49060
C      5.61544    -1.29698     0.37543
C      6.98053    -1.70325    -0.09306
O      5.24182    -1.48160     1.52389
O      4.87312    -0.73017    -0.55352
H      3.98916    -0.48217    -0.19174
H      7.11295    -2.76731     0.08489
H      7.10235    -1.47315    -1.14492
H      7.72571    -1.17990     0.50069
C     -4.20269    -3.87953     0.15780
C     -5.26799    -4.77963     0.71266
O     -4.27698    -3.40949    -0.96827
O     -3.20816    -3.65439     0.98550
H     -2.53060    -3.05075     0.57550
H     -5.37445    -5.64268     0.06030
H     -5.01255    -5.09102     1.71867
H     -6.21598    -4.24732     0.70634
