 80
-2292.582758240194
C      2.14971    -0.74726     3.12225
C      1.08493    -1.03241     4.12649
O      2.08412    -1.02020     1.93676
O      3.21585    -0.16242     3.65747
H      3.89491    -0.00389     2.97371
H      1.49708    -1.63086     4.93854
H      0.72509    -0.09598     4.54767
H      0.26574    -1.55164     3.64370
C     -2.37383     2.60349     1.28856
C     -3.76412     2.28119     0.86550
O     -1.67958     1.85065     1.96570
O     -1.92992     3.75232     0.84263
H     -0.99071     3.89073     1.12885
H     -4.39037     3.16778     0.93615
H     -3.72728     1.96950    -0.17857
H     -4.15122     1.46766     1.46691
C      0.13256    -1.89571    -3.63966
C     -0.58736    -1.24407    -4.77726
O     -0.17905    -2.99373    -3.21115
O      1.10054    -1.16183    -3.12590
H      1.59150    -1.67351    -2.43357
H     -0.96171    -1.99635    -5.46305
H     -1.44104    -0.70769    -4.37083
H      0.05217    -0.53138    -5.28371
C     -1.07503    -1.93705     0.80204
C     -2.27369    -2.10100    -0.07759
O     -0.92998    -2.43267     1.88993
O     -0.12886    -1.16966     0.22678
H      0.66038    -1.14486     0.79934
H     -2.02370    -2.79004    -0.88275
H     -3.09603    -2.48337     0.51640
H     -2.54698    -1.14346    -0.51583
C      1.85668    -3.48266    -0.63673
C      2.39639    -3.93253     0.68218
O      2.39438    -2.63871    -1.33572
O      0.73497    -4.09029    -0.95817
H      0.37352    -3.72951    -1.80347
H      3.29408    -3.37737     0.92034
H      1.63832    -3.75338     1.43802
H      2.60634    -4.99989     0.64785
C     -3.29111    -0.95894     3.42190
C     -3.53374    -2.15802     4.28545
O     -3.76742    -0.79843     2.32452
O     -2.45619    -0.07732     3.99338
H     -2.25938     0.60657     3.33902
H     -4.54514    -2.52197     4.12877
H     -2.83867    -2.94001     3.97873
H     -3.35961    -1.91869     5.33024
C     -3.49517     1.35330    -5.03239
C     -4.57138     1.30100    -6.07602
O     -2.43104     1.92167    -5.22898
O     -3.79196     0.72671    -3.91484
H     -3.06998     0.83070    -3.24263
H     -4.85705     2.31669    -6.33801
H     -4.16634     0.83661    -6.97192
H     -5.42881     0.74545    -5.71425
C      1.28206     3.17514     2.22524
C      2.75832     3.32939     2.42456
O      0.60976     3.95727     1.57387
O      0.77692     2.11749     2.82970
H     -0.16330     1.98858     2.55923
H      3.23177     2.35478     2.41034
H      3.17508     3.96846     1.65350
H      2.93422     3.78173     3.39925
C      5.41377     0.17295     0.61401
C      4.39705    -0.43531    -0.29306
O      5.24416     0.48616     1.77441
O      6.59693     0.36561     0.01319
H      7.19300     0.75161     0.66821
H      4.70065    -1.43428    -0.59383
H      3.43704    -0.50636     0.20220
H      4.30842     0.15877    -1.19990
C     -0.77133     1.62169    -2.35130
C      0.24716     1.76548    -1.27292
O     -1.84035     1.05231    -2.17881
O     -0.41880     2.14974    -3.49812
H     -1.16570     2.10107    -4.15015
H     -0.03438     1.17232    -0.41097
H      1.21471     1.45001    -1.64792
H      0.31312     2.81416    -0.99201
