 32
-917.0205666398756
C      1.15748    -0.50289    -2.04039
C      2.39863    -1.16285    -2.55963
O      0.76061    -0.62231    -0.89626
O      0.51841     0.21143    -2.95444
H     -0.25949     0.63544    -2.52803
H      3.23471    -0.89896    -1.91723
H      2.26682    -2.24138    -2.49936
H      2.59276    -0.86687    -3.58476
C     -2.63090     0.67563    -1.88799
C     -3.18589     0.80345    -3.27281
O     -1.54801     1.16721    -1.58120
O     -3.38007     0.01318    -1.05302
H     -2.93563    -0.07231    -0.15890
H     -3.43305     1.84728    -3.45581
H     -2.41506     0.51681    -3.98447
H     -4.07126     0.18903    -3.39232
C      2.87339    -0.69430     2.20081
C      4.20952    -0.45277     2.85301
O      1.99790    -1.38590     2.65583
O      2.77435    -0.03377     1.03432
H      1.88881    -0.18990     0.66575
H      4.26809    -1.01864     3.77601
H      5.01146    -0.75228     2.18023
H      4.33161     0.60924     3.06057
C     -1.34108     0.29242     1.81061
C     -1.12621     0.37518     3.28233
O     -2.29256    -0.27313     1.29662
O     -0.40191     0.89558     1.10618
H     -0.46981     0.65006     0.16557
H     -0.33377    -0.32053     3.55038
H     -0.80565     1.37827     3.54816
H     -2.03819     0.10666     3.80377
