 56
-1604.8021657584475
C      3.41610     1.95194    -0.42965
C      4.63738     2.32494    -1.20675
O      3.41159     1.61559     0.73123
O      2.29491     2.01344    -1.15952
H      1.56208     1.75747    -0.58064
H      5.41064     2.66026    -0.52276
H      4.98790     1.43689    -1.72986
H      4.40516     3.09464    -1.93766
C      1.81635    -1.21971     1.19294
C      3.26307    -1.42771     1.51266
O      1.33599    -1.27233     0.07956
O      1.08264    -0.93930     2.27120
H      0.13716    -1.00661     2.02359
H      3.67768    -0.48859     1.86868
H      3.36226    -2.17097     2.30213
H      3.79211    -1.74158     0.62032
C     -3.20551     1.38382     0.05591
C     -4.45087     1.21578    -0.75259
O     -3.21779     1.74165     1.22148
O     -2.10127     1.08068    -0.59328
H      0.96410     2.78664     3.76538
H     -4.31135     1.60355    -1.75818
H     -4.66044     0.15009    -0.82666
H     -5.28117     1.71129    -0.26075
C     -2.49791    -1.34130     2.07124
C     -2.71088    -1.05301     3.51758
O     -1.41335    -1.35221     1.51998
O     -3.62565    -1.57109     1.42014
H     -3.43896    -1.81294     0.48719
H     -3.05121    -0.02121     3.59880
H     -3.47426    -1.70377     3.93351
H     -1.77249    -1.15527     4.04995
C     -2.40087    -2.39676    -1.96428
C     -1.11188    -1.66771    -1.78868
O     -3.37571    -2.30939    -1.23987
O     -2.42891    -3.19710    -3.04003
H     -3.29643    -3.62099    -3.05443
H     -0.26445    -2.33228    -1.91142
H     -1.04126    -0.89077    -2.54647
H     -1.07737    -1.20209    -0.81449
C      0.01744     2.05084     2.00919
C      1.23501     2.31000     2.82826
O      0.02025     1.95215     0.78464
O     -1.07705     1.91353     2.71873
H     -1.87928     1.86036     2.13465
H     -1.29315     1.33371    -0.08032
H      1.70987     1.35064     3.03094
H      1.93840     2.90418     2.25855
C      3.12145    -0.70688    -2.84091
C      3.41427    -0.27631    -4.25129
O      3.95953    -0.75051    -1.97315
O      1.83401    -1.01015    -2.66123
H      1.65727    -1.16149    -1.71136
H      3.49508     0.80971    -4.26578
H      4.37014    -0.68750    -4.56278
H      2.62415    -0.58532    -4.92839
