 48
-1375.544250702306
C     -1.69836    -2.60356     2.15016
C     -2.72684    -3.19011     3.05907
O     -1.93992    -1.82868     1.23983
O     -0.47174    -3.02705     2.40580
H      0.15181    -2.62124     1.77068
H     -3.12033    -4.08426     2.57757
H     -2.27410    -3.46280     4.00665
H     -3.53881    -2.48356     3.20058
C      1.37957    -2.52195    -0.38784
C      0.58958    -3.77961    -0.55421
O      1.49245    -1.96794     0.70662
O      1.91097    -2.04900    -1.47829
H      2.45804    -1.22897    -1.30294
H      0.83434    -4.27558    -1.48608
H      0.75971    -4.43105     0.29596
H     -0.46951    -3.52610    -0.55631
C     -0.16687     2.42363    -0.40708
C     -0.29109     0.93213    -0.42368
O     -1.12960     3.17030    -0.44977
O      1.07966     2.84856    -0.34656
H      1.11166     3.84413    -0.36494
H     -0.01072     0.56539    -1.40897
H      0.39009     0.49511     0.29636
H     -1.31090     0.63930    -0.20788
C      0.17275     6.23243    -0.51032
C      0.31859     7.72554    -0.56861
O      1.14058     5.49097    -0.40547
O     -1.06720     5.80843    -0.57884
H     -1.10611     4.81516    -0.52970
H      0.99528     7.98390    -1.37900
H     -0.64783     8.19403    -0.71300
H      0.77229     8.07005     0.35759
C      3.52765     0.66740     0.02656
C      4.38157     1.88171     0.17100
O      3.31289     0.11536    -1.04096
O      3.00347     0.24942     1.16446
H      2.47414    -0.56638     1.01933
H      3.72797     2.74343     0.28518
H      4.99775     1.80106     1.06191
H      4.99196     2.00871    -0.71570
C     -3.38088    -4.04493    -0.73419
C     -4.21998    -4.67239    -1.81772
O     -2.83496    -4.67134     0.14481
O     -3.30224    -2.71986    -0.87437
H     -2.78528    -2.33593    -0.13236
H     -5.21908    -4.24105    -1.81017
H     -3.77941    -4.46428    -2.79127
H     -4.27546    -5.74346    -1.65723
