 48
-1375.5439073903456
C     -1.13868    -0.48158     1.17021
C     -0.17123     0.63559     0.96834
O     -2.20265    -0.54245     0.57453
O     -0.73791    -1.39244     2.03031
H     -1.39971    -2.13204     2.10470
H      0.41558     0.42247     0.07845
H     -0.72645     1.54857     0.79428
H      0.49045     0.73173     1.81875
C      2.97864     0.10575    -1.88931
C      3.27390     0.93331    -3.09905
O      3.24640     0.48984    -0.75042
O      2.42362    -1.04819    -2.13959
H      2.22287    -1.55021    -1.29966
H      3.03344     0.37655    -3.99744
H      2.68433     1.84513    -3.04551
H      4.32490     1.21191    -3.08664
C      1.48084     3.36712    -0.30868
C      0.78873     4.58861     0.19799
O      1.26586     2.85527    -1.39151
O      2.38464     2.88743     0.54233
H      2.79153     2.09709     0.14865
H      1.08331     4.79672     1.22078
H      1.04962     5.42862    -0.44481
H     -0.28705     4.44689     0.12306
C     -2.25223     2.52078    -1.61695
C     -3.59799     1.94742    -1.95390
O     -2.03959     3.26621    -0.69044
O     -1.29778     2.08108    -2.44607
H     -0.43919     2.42183    -2.14300
H     -3.67293     1.76002    -3.02097
H     -3.70513     1.00157    -1.42189
H     -4.37518     2.62675    -1.61755
C      2.27824    -2.06709     1.20919
C      2.08424    -2.99967     2.36094
O      1.87038    -2.31037     0.08489
O      2.93080    -0.95910     1.51106
H      3.08371    -0.41618     0.70253
H      1.01841    -3.15428     2.50736
H      2.52900    -3.96226     2.11986
H      2.53435    -2.58427     3.25498
C     -3.51336    -3.44778     1.52418
C     -4.43480    -4.62602     1.65048
O     -2.49600    -3.34928     2.19802
O     -3.89375    -2.55495     0.64180
H     -3.25211    -1.79477     0.60590
H     -3.88481    -5.53070     1.40248
H     -4.75616    -4.71318     2.68541
H     -5.28956    -4.51167     0.99400
