 64
-1834.0600075364846
C     -0.75270    -2.69346     0.96935
C      0.37408    -3.31923     1.72405
O     -0.81339    -2.66186    -0.24789
O     -1.69393    -2.17841     1.74531
H     -2.37014    -1.73112     1.19169
H      0.42188    -2.89277     2.71811
H      0.18822    -4.39099     1.79269
H      1.30454    -3.15969     1.19042
C      1.90143     1.48540    -0.28952
C      1.31173     2.11276    -1.50499
O      2.22210     0.30017    -0.24374
O      2.05753     2.28669     0.73733
H      2.40518     1.80016     1.52258
H      0.29311     1.74283    -1.61321
H      1.29371     3.19338    -1.41266
H      1.88576     1.80644    -2.37415
C     -3.19250    -0.57868    -1.11296
C     -3.97545     0.44142    -1.86516
O     -3.41345    -0.84949     0.05959
O     -2.23498    -1.16822    -1.79956
H     -1.68605    -1.76997    -1.21650
H     -3.54058     1.41704    -1.64752
H     -3.89545     0.27611    -2.93286
H     -5.00919     0.43487    -1.53127
C      3.22521    -0.22694     2.91503
C      3.79683    -0.89060     4.12187
O      2.85506     0.94723     2.91262
O      3.11444    -0.99438     1.86236
H      2.76225    -0.49822     1.07659
H      4.36403    -0.16989     4.70210
H      2.95658    -1.23827     4.72165
H      4.40770    -1.73870     3.83236
C     -1.11099     1.19738    -4.33217
C     -0.32431     1.69776    -5.50671
O     -1.78892     1.88341    -3.60758
O     -0.96640    -0.12718    -4.16323
H     -1.43114    -0.38990    -3.35012
H      0.73797     1.59611    -5.29549
H     -0.54869     1.10128    -6.38867
H     -0.56802     2.73940    -5.68698
C     -1.75951     1.98518     1.16005
C     -1.31990     3.25423     1.81853
O     -1.20097     1.44872     0.23442
O     -2.87453     1.49069     1.71793
H     -3.12386     0.68478     1.23976
H     -0.40755     3.60569     1.35352
H     -2.10251     4.00771     1.72407
H     -1.15005     3.06857     2.87509
C     -0.17642    -0.00951     4.28958
C     -1.60737    -0.06219     4.72539
O      0.60276    -0.92070     4.42949
O      0.14891     1.16544     3.72652
H      1.08934     1.15570     3.47523
H     -1.64556     0.03411     5.81058
H     -2.17466     0.73709     4.26572
H     -2.01823    -1.03062     4.45556
C      2.14288    -1.12027    -3.73887
C      1.90172    -2.24863    -4.69940
O      2.66672    -0.07043    -4.02473
O      1.69256    -1.40552    -2.50994
H      1.87547    -0.65934    -1.92056
H      2.50940    -2.11179    -5.58894
H      2.12872    -3.20055    -4.22498
H      0.84906    -2.25495    -4.98011
