 32
-917.0279557848772
C      0.36518    -1.25590     1.60068
C     -0.54902    -1.74486     2.67715
O      0.67251    -0.09082     1.45619
O      0.78193    -2.22087     0.79449
H      1.40272    -1.85577     0.12489
H     -1.57382    -1.57270     2.35095
H     -0.40667    -2.80504     2.85663
H     -0.38376    -1.16899     3.58263
C     -1.93338     2.14281     1.46072
C     -2.64592     3.38062     1.92350
O     -2.48469     1.06696     1.30688
O     -0.65009     2.34441     1.23448
H     -0.21393     1.50238     0.99504
H     -2.18774     3.74270     2.84112
H     -2.54138     4.16158     1.17370
H     -3.69324     3.15975     2.09048
C      2.90071    -0.16518    -1.39511
C      4.28727     0.08967    -1.91159
O      2.47200    -1.27644    -1.13703
O      2.19770     0.94028    -1.24621
H      1.28694     0.72495    -0.96154
H      4.23188     0.60434    -2.86815
H      4.81893     0.73887    -1.21943
H      4.81414    -0.85024    -2.02261
C     -1.17810    -0.70941    -1.35692
C     -0.97403    -1.80529    -2.35217
O     -0.50778     0.30158    -1.31953
O     -2.14720    -0.96896    -0.49178
H     -2.26063    -0.21124     0.12438
H     -0.62537    -1.38421    -3.28977
H     -0.19909    -2.46738    -1.96787
H     -1.88598    -2.37537    -2.49490
