 48
-1375.5452915527303
C     -0.81324    -0.39251     1.70209
C      0.21628     0.57331     2.18182
O     -0.81605    -0.83560     0.56083
O     -1.72769    -0.70825     2.58823
H     -2.36989    -1.36434     2.21031
H     -0.06239     1.55624     1.80636
H      0.26317     0.59195     3.26633
H      1.17338     0.30274     1.74910
C      1.68938    -0.84324    -1.61538
C      0.50153    -0.61624    -2.48221
O      2.21879     0.05280    -0.95842
O      2.13511    -2.07034    -1.60709
H      2.93790    -2.16014    -1.02435
H     -0.37942    -0.97088    -1.94979
H      0.39674     0.44463    -2.67302
H      0.59446    -1.17529    -3.40974
C      0.68093     3.33586    -1.02620
C      0.45631     4.75630    -0.61938
O      0.03195     2.74943    -1.87334
O      1.65977     2.75389    -0.34988
H      1.75998     1.83173    -0.64473
H      0.02597     5.31588    -1.44332
H     -0.24817     4.75961     0.21083
H      1.38840     5.20034    -0.28634
C     -2.62137     1.88893    -0.09754
C     -3.95726     1.37456     0.35087
O     -1.86463     2.48948     0.63241
O     -2.35603     1.58873    -1.36514
H     -1.48462     1.96466    -1.60634
H     -3.81321     0.48945     0.96721
H     -4.44334     2.12324     0.97041
H     -4.58036     1.11521    -0.49755
C      4.65202    -1.47624     0.77091
C      5.76141    -1.74688     1.74367
O      4.26123    -2.31794    -0.02187
O      4.14689    -0.25976     0.85388
H      3.44163    -0.13128     0.17601
H      5.92392    -0.88579     2.38129
H      5.50533    -2.62082     2.33702
H      6.66534    -1.98401     1.18803
C     -3.61923    -2.53968     0.26669
C     -4.70445    -3.40072    -0.31353
O     -3.47406    -2.37301     1.46757
O     -2.85602    -1.96978    -0.64507
H     -2.09580    -1.50353    -0.21184
H     -5.37060    -3.73077     0.47530
H     -5.25323    -2.84064    -1.06671
H     -4.25748    -4.26388    -0.80290
