 40
-1146.2791403537208
C      2.05567    -1.49641    -1.56650
C      2.22404    -1.83935    -3.01572
O      2.52434    -0.50727    -1.05252
O      1.29704    -2.38452    -0.92077
H      1.30254    -2.19858     0.04488
H      1.45825    -1.30915    -3.58040
H      3.19615    -1.49499    -3.35498
H      2.10963    -2.90574    -3.18282
C      1.25454    -1.05461     2.41879
C      1.06973     0.26398     1.75064
O      1.30341    -2.12764     1.85124
O      1.35452    -0.98155     3.75411
H      1.45820    -1.88513     4.07695
H      0.02269     0.33183     1.47258
H      1.32774     1.08937     2.40649
H      1.65816     0.29397     0.84011
C      0.93659     2.12171    -2.14304
C      2.26749     2.78723    -2.28071
O      0.41859     1.47232    -3.04018
O      0.37656     2.29463    -0.96240
H     -0.46418     1.78535    -0.91608
H      2.99186     2.21239    -1.70686
H      2.56473     2.80779    -3.32249
H      2.22550     3.79064    -1.86583
C     -2.57293     0.63551     2.55984
C     -3.14349     1.02216     3.89448
O     -1.94069    -0.37605     2.36654
O     -2.83831     1.54117     1.61208
H     -2.46890     1.24345     0.76262
H     -2.33254     1.09254     4.61698
H     -3.67338     1.96576     3.82821
H     -3.81178     0.23316     4.23378
C     -1.73118    -0.39728    -1.42609
C     -2.38893    -1.62593    -0.88832
O     -1.75747     0.69090    -0.85627
O     -1.11769    -0.57777    -2.56501
H     -0.59053     0.23760    -2.80573
H     -1.66677    -2.43730    -0.86792
H     -2.76119    -1.42322     0.10891
H     -3.20567    -1.91283    -1.54980
