 64
-1834.0636334796677
C     -0.59998    -2.22436     0.45954
C     -1.96945    -1.94623    -0.06120
O     -0.19909    -3.32653     0.77844
O      0.16275    -1.13823     0.57204
H      1.09766    -1.41924     0.61639
H     -2.49536    -1.29001     0.62742
H     -1.87963    -1.43999    -1.02046
H     -2.51429    -2.87872    -0.17946
C      3.17687     1.20089     1.77264
C      4.44153     0.55256     1.30238
O      2.78067     1.21739     2.92216
O      2.49619     1.75260     0.77701
H      1.65595     2.10352     1.11375
H      4.18313    -0.42763     0.90413
H      4.89525     1.14610     0.51393
H      5.12435     0.42948     2.13636
C     -4.02378     0.26617    -2.89138
C     -4.49979    -1.03781    -3.45006
O     -3.53374     1.16260    -3.55010
O     -4.17443     0.34307    -1.57471
H     -3.78604     1.17641    -1.26454
H     -4.70057    -0.93354    -4.51049
H     -3.70465    -1.76927    -3.31343
H     -5.37843    -1.38130    -2.91320
C      2.15741    -2.04208     3.34298
C      1.92404    -3.44007     3.82637
O      2.47304    -1.77046     2.20585
O      1.94583    -1.12385     4.28602
H      2.10036    -0.23688     3.90198
H      2.01757    -3.49596     4.90589
H      0.91720    -3.73431     3.53288
H      2.62053    -4.11021     3.33317
C      2.85562    -3.29672    -0.61468
C      4.19292    -3.75410    -1.13363
O      2.42953    -2.17254    -0.78021
O      2.21960    -4.24951     0.05694
H      1.34462    -3.92388     0.36589
H      4.29404    -3.46081    -2.17551
H      4.97506    -3.24864    -0.56984
H      4.29849    -4.82817    -1.02532
C     -0.90081     1.69559     1.78205
C     -0.33988     0.95788     2.95391
O     -0.24680     2.51707     1.14201
O     -2.14463     1.40623     1.48820
H     -2.45702     1.92533     0.70473
H      0.35455     1.59423     3.48889
H     -1.13196     0.59883     3.60117
H      0.22426     0.10709     2.58465
C     -2.37743     3.74999    -1.10887
C     -2.97198     4.52309    -2.23478
O     -2.94245     2.77786    -0.61151
O     -1.21907     4.18007    -0.68710
H     -0.85312     3.57948     0.01212
H     -3.01461     3.87611    -3.10780
H     -3.99311     4.79745    -1.98127
H     -2.37903     5.40424    -2.45143
C     -0.31419     0.47888    -2.81917
C      1.15539     0.55958    -2.53128
O     -0.96154    -0.54306    -2.79853
O     -0.85376     1.68015    -3.09088
H     -1.78237     1.53515    -3.36494
H      1.34085     1.34190    -1.80169
H      1.50916    -0.39254    -2.15284
H      1.68860     0.81058    -3.44890
