 56
-1604.8050489615284
C      2.28703     0.65053    -1.79747
C      2.78781     0.17889    -3.12030
O      2.00269     1.81608    -1.57537
O      2.14669    -0.30752    -0.90050
H      1.91100     0.06732    -0.01358
H      3.31054    -0.76412    -3.00864
H      1.92422     0.03449    -3.76853
H      3.42314     0.94409    -3.55989
C     -1.04632    -0.19664    -1.70101
C     -1.13078     1.23949    -1.30090
O     -0.66867    -0.56715    -2.80123
O     -1.40306    -1.02903    -0.74435
H     -1.47779    -1.95933    -1.09053
H     -0.50862     1.40150    -0.42881
H     -0.80013     1.87245    -2.11484
H     -2.14725     1.48471    -1.00764
C     -1.74799     0.86638     2.97975
C     -1.63242    -0.60687     2.77640
O     -1.87038     1.38305     4.07909
O     -1.66405     1.56340     1.86241
H     -2.70288     6.33135     4.57721
H     -1.90880    -1.12504     3.68940
H     -2.25333    -0.92596     1.94618
H     -0.59641    -0.82883     2.52697
C      1.59579     1.97232     1.69660
C      1.58328     2.49677     3.09860
O      1.60249     0.77810     1.43850
O      1.56739     2.91265     0.78268
H      1.70674     2.52896    -0.12207
H      0.56039     2.76384     3.35438
H      1.92581     1.73308     3.78708
H      2.19045     3.39176     3.18027
C     -1.35370    -3.80137    -2.86199
C     -1.73216    -5.13095    -3.43808
O     -1.65314    -3.46102    -1.72845
O     -0.64854    -3.04901    -3.67509
H     -0.57753    -2.11974    -3.32938
H     -2.38720    -5.65340    -2.75043
H     -2.21919    -4.99317    -4.40042
H     -0.82832    -5.71209    -3.60137
C     -2.00244     4.62529     3.50687
C     -2.12834     6.10873     3.68471
O     -1.76439     4.11271     2.42051
O     -2.14517     3.93811     4.61535
H     -2.05946     2.96413     4.43099
H     -1.73170     2.53780     2.05412
H     -1.13014     6.52915     3.79111
H     -2.58598     6.54638     2.80341
C      2.15979    -4.08464    -1.91179
C      1.81922    -3.63363    -0.52152
O      2.90560    -3.53322    -2.67743
O      1.51473    -5.22597    -2.25460
H      1.80255    -5.42954    -3.15200
H      2.34991    -2.71525    -0.29834
H      0.74621    -3.46214    -0.45267
H      2.08846    -4.40523     0.19889
