 48
-1375.5434831564264
C     -0.66467    -3.58373     1.58147
C     -1.63540    -4.05597     2.60769
O     -0.94091    -3.36094     0.41396
O      0.56924    -3.43511     2.04103
H      1.14370    -3.07764     1.33998
H     -2.38019    -3.27625     2.75404
H     -2.14722    -4.93777     2.22788
H     -1.12118    -4.27637     3.53538
C      2.59420    -2.38670    -0.80332
C      1.84739    -3.54312    -1.38886
O      2.52290    -2.10471     0.39039
O      3.32040    -1.71719    -1.65509
H      3.78803    -0.95191    -1.21859
H      2.14580    -3.71929    -2.41722
H      2.03632    -4.42138    -0.77645
H      0.78040    -3.33929    -1.33216
C     -0.34351     1.54249    -1.21523
C      0.71081     0.49370    -1.34959
O     -0.44129     2.23280    -0.21191
O     -1.13977     1.65319    -2.25024
H     -1.79991     2.37975    -2.10558
H      1.23106     0.42614    -0.40369
H      0.25987    -0.45885    -1.60428
H      1.40770     0.76062    -2.13960
C     -2.96483     4.30387    -0.82622
C     -3.99176     5.38961    -0.69227
O     -2.93406     3.56099    -1.79594
O     -2.12895     4.22175     0.18534
H     -1.46710     3.49338     0.04371
H     -4.98162     4.94155    -0.72802
H     -3.85252     5.93088     0.23608
H     -3.90790     6.06116    -1.54287
C      4.29124     0.79464     0.56577
C      4.77485     2.12205     1.06033
O      4.40524     0.42912    -0.59403
O      3.71935     0.06319     1.50130
H      3.36142    -0.77134     1.12373
H      3.91933     2.71424     1.38043
H      5.41989     1.98029     1.92391
H      5.30475     2.63751     0.26914
C     -2.84852    -0.66823     0.68042
C     -3.52881     0.63858     0.39534
O     -2.93621    -1.26223     1.72804
O     -2.11624    -1.08695    -0.35608
H     -1.70139    -1.94743    -0.12412
H     -3.79975     0.70794    -0.65332
H     -4.40440     0.74172     1.02726
H     -2.84178     1.45072     0.62127
