 56
-1604.8095776880152
C      4.54952     0.85167    -3.62568
C      5.63750     0.75046    -4.65550
O      3.44476     1.30349    -3.89587
O      4.89112     0.41961    -2.43493
H      4.13989     0.52440    -1.78956
H      5.86350     1.74737    -5.02632
H      6.52369     0.29617    -4.22779
H      5.27544     0.16461    -5.49660
C     -1.38934    -0.00657    -2.79824
C     -1.16607     0.67520    -4.10914
O     -0.89564    -1.08822    -2.51918
O     -2.16248     0.65867    -1.96227
H     -2.31955     0.11414    -1.15682
H     -1.30604    -0.03898    -4.91620
H     -1.84310     1.51535    -4.21366
H     -0.13617     1.02291    -4.14377
C     -0.89790     0.56030     3.98218
C      0.21845    -0.04460     4.77689
O     -0.77307     1.58567     3.33220
O     -2.02231    -0.12891     4.03439
H     -5.62107     1.73592     0.91572
H      0.73430    -0.75206     4.13069
H      0.91660     0.73227     5.07204
H     -0.17712    -0.57206     5.63981
C      1.77811     1.11818    -1.00662
C      0.68994     1.16931     0.00677
O      2.90404     0.71882    -0.74598
O      1.41800     1.51331    -2.21073
H      2.17624     1.44423    -2.85059
H      0.20612     0.19828     0.03995
H      1.10228     1.34788     0.99139
H     -0.03865     1.92296    -0.25986
C     -1.96112    -1.96264     0.43863
C     -2.16195    -2.69064     1.72571
O     -2.54452    -0.93796     0.14932
O     -1.08020    -2.53367    -0.37315
H     -1.02034    -2.01987    -1.23115
H     -2.65541    -3.64150     1.52711
H     -1.19031    -2.88894     2.17033
H     -2.76467    -2.08543     2.39109
C     -3.62287     1.72262     1.63288
C     -4.62687     1.97516     0.55565
O     -3.89147     1.14435     2.67594
O     -2.42383     2.18189     1.34731
H     -1.79572     1.98503     2.08888
H     -2.75164     0.35231     3.55679
H     -4.57030     3.01133     0.23364
H     -4.38305     1.34400    -0.29693
C      1.76777    -1.96426     1.52898
C      3.20476    -1.85393     1.93740
O      0.87862    -1.25567     1.94079
O      1.58044    -2.93794     0.63455
H      0.65504    -2.91865     0.33109
H      3.28137    -1.27733     2.85236
H      3.63957    -2.84276     2.05828
H      3.74472    -1.33456     1.14548
