 48
-1375.5486137261996
C     -2.42762     1.38717     2.94196
C     -3.62623     0.58347     3.35394
O     -2.50342     2.42202     2.31844
O     -1.28047     0.81290     3.30057
H     -0.53246     1.32581     2.92710
H     -4.48132     1.24211     3.46812
H     -3.85006    -0.12656     2.55716
H     -3.43758     0.03120     4.27090
C      1.66663    -1.80105     0.79561
C      0.71473    -1.70004     1.94190
O      2.37512    -0.86707     0.42545
O      1.68711    -2.97708     0.22258
H      2.37108    -3.02116    -0.49717
H     -0.28272    -1.96015     1.60052
H      1.00034    -2.41189     2.71610
H      0.71588    -0.69319     2.33919
C      0.52456     2.37039     0.84437
C     -0.25574     3.54988     0.36269
O      0.69302     2.06534     2.01090
O      1.05413     1.65139    -0.14297
H      1.56142     0.92136     0.24770
H     -1.17077     3.63222     0.94188
H      0.34076     4.44667     0.52738
H     -0.47397     3.44492    -0.69368
C     -3.76208     1.03018    -0.68539
C     -4.98355     1.63107    -0.06795
O     -3.24712     0.00207    -0.26710
O     -3.28441     1.71885    -1.69628
H     -2.49040     1.26223    -2.08700
H     -4.65655     2.31881     0.71160
H     -5.55063     2.18269    -0.81102
H     -5.58541     0.85238     0.38765
C      4.47142    -2.35271    -1.77548
C      5.62326    -2.59569    -2.70411
O      3.49415    -3.08377    -1.72136
O      4.61298    -1.27362    -1.03075
H      3.81622    -1.12938    -0.46816
H      5.73101    -1.74760    -3.37672
H      6.54285    -2.67852    -2.12978
H      5.44920    -3.50236    -3.26983
C     -0.51882    -0.36028    -2.11063
C      0.79694    -0.84635    -2.61822
O     -1.17666     0.49373    -2.67939
O     -0.89643    -0.93492    -0.98767
H     -1.79184    -0.60484    -0.71012
H      1.58470    -0.42729    -1.99602
H      0.85655    -1.92670    -2.53570
H      0.94882    -0.53274    -3.64420
