 32
-917.01802020738
C      2.57487     1.40876     0.36631
C      4.03430     1.29038     0.69522
O      2.10423     1.27297    -0.73656
O      1.83424     1.67769     1.45278
H      0.90536     1.72150     1.17226
H      4.27147     1.88463     1.57226
H      4.25873     0.24614     0.90579
H      4.62407     1.60355    -0.16138
C     -1.18437     2.03766    -0.90829
C     -0.66654     3.35291    -1.38443
O     -1.77285     1.25395    -1.62950
O     -0.92536     1.78220     0.36744
H     -1.36788     0.92536     0.64370
H     -0.92879     4.13920    -0.68102
H      0.41834     3.28969    -1.43652
H     -1.07117     3.56682    -2.36692
C      1.14208    -2.37419     0.17927
C      0.83154    -1.58746    -1.05525
O      0.53667    -3.33651     0.57735
O      2.20907    -1.88139     0.85197
H      2.31349    -2.43793     1.63160
H      0.41075    -0.62570    -0.78186
H      1.72977    -1.37663    -1.62492
H      0.11427    -2.13294    -1.65479
C     -2.51035    -1.31578     0.30818
C     -3.00828    -2.62374     0.82130
O     -1.98899    -0.47529     1.02879
O     -2.65684    -1.16199    -0.98848
H     -2.34441    -0.25884    -1.25735
H     -2.23036    -3.36631     0.65350
H     -3.19977    -2.55061     1.88573
H     -3.89854    -2.92682     0.27870
