 72
-2063.327620990141
C     -1.39083    -2.93193     5.86124
C     -1.06542    -2.71423     7.31034
O     -2.42537    -2.58636     5.34338
O     -0.41135    -3.56480     5.20229
H     -0.65866    -3.65052     4.26280
H     -0.06466    -3.06186     7.54012
H     -1.16319    -1.65520     7.53675
H     -1.79733    -3.24455     7.91584
C     -1.17929     3.75005    -0.54423
C     -2.25116     4.59178    -1.15295
O     -1.37068     2.69175     0.01625
O      0.04381     4.25256    -0.70559
H      0.69224     3.61726    -0.35730
H     -1.93144     5.62473    -1.23153
H     -2.44693     4.19862    -2.14889
H     -3.16167     4.51053    -0.56769
C      2.11491     1.37182     0.04343
C      1.03495     0.91050     0.95320
O      2.29540     2.56013    -0.22190
O      2.85523     0.41889    -0.45574
H      3.57523     0.78730    -1.03647
H      0.70878     1.74583     1.56138
H      0.18317     0.56567     0.37124
H      1.38066     0.08773     1.56886
C     -1.88333    -4.25631     2.00836
C     -2.85783    -4.86530     2.96659
O     -0.83773    -3.73292     2.38950
O     -2.23790    -4.30530     0.75614
H     -1.49924    -4.00579     0.14525
H     -2.31360    -5.45635     3.69849
H     -3.35371    -4.06443     3.51057
H     -3.59023    -5.47473     2.44511
C     -2.41708    -0.16694     1.59427
C     -2.98057    -1.13905     2.57680
O     -1.71999    -0.49512     0.65953
O     -2.76028     1.09410     1.84704
H     -2.35821     1.67354     1.17636
H     -2.18250    -1.74580     2.98435
H     -3.50878    -0.64433     3.38394
H     -3.65567    -1.80162     2.04111
C      0.66797    -2.98459    -0.56721
C      1.64587    -2.49576    -1.57847
O     -0.33535    -3.62019    -0.85985
O      0.96113    -2.64149     0.67105
H      0.31072    -3.02170     1.30340
H      1.66837    -3.17631    -2.42374
H      1.30948    -1.51673    -1.91949
H      2.62746    -2.38639    -1.13329
C      0.48206     2.83409    -3.57843
C      1.29849     3.97565    -4.09274
O     -0.73815     2.84464    -3.57310
O      1.19747     1.83337    -3.11580
H      0.61152     1.08885    -2.82172
H      0.68248     4.62492    -4.70589
H      1.67151     4.53485    -3.23653
H      2.15329     3.60477    -4.65064
C     -1.62247    -0.16176    -2.49529
C     -2.39295    -1.41534    -2.23039
O     -0.40222    -0.10154    -2.41373
O     -2.36359     0.87693    -2.81677
H     -1.78521     1.63608    -3.06633
H     -3.41893    -1.30646    -2.56728
H     -1.90383    -2.25702    -2.71162
H     -2.36193    -1.59525    -1.15652
C      4.89799     2.57215    -2.30577
C      5.99299     3.04805    -3.21504
O      4.79881     1.41555    -1.93212
O      4.04284     3.51784    -1.96982
H      3.36783     3.17243    -1.33569
H      6.66095     2.22722    -3.44501
H      5.55047     3.43754    -4.12963
H      6.53763     3.85912    -2.73763
