 72
-2063.3279203131897
C      2.43011     1.63562    -1.88933
C      1.90228     2.72131    -2.77178
O      2.03475     0.48015    -1.93905
O      3.36499     2.03746    -1.05541
H      3.72401     1.26745    -0.54839
H      2.72459     3.16854    -3.32832
H      1.16041     2.30648    -3.44449
H      1.44853     3.49442    -2.15669
C     -3.16600     3.95559     1.03382
C     -3.39643     4.24742     2.47857
O     -2.25571     4.41923     0.37212
O     -4.04939     3.10292     0.52190
H     -3.83704     2.98779    -0.41898
H     -3.23714     5.30554     2.66580
H     -4.39382     3.93784     2.76863
H     -2.65462     3.68772     3.04616
C     -1.47989     0.26187    -2.99909
C     -1.04731    -1.16379    -3.10750
O     -1.11834     1.12666    -3.78055
O     -2.28318     0.51073    -1.97860
H     -2.58552     1.44391    -2.00928
H     -1.44994    -1.74124    -2.28408
H     -1.38958    -1.56658    -4.05962
H      0.03899    -1.20121    -3.09529
C      0.65185    -3.98048     0.26349
C      1.82085    -4.75161    -0.24959
O      0.52178    -3.64106     1.43697
O     -0.22946    -3.68194    -0.65978
H     -1.00482    -3.19142    -0.27781
H      2.52089    -4.04649    -0.69414
H      2.30957    -5.26692     0.56720
H      1.49804    -5.44667    -1.02081
C     -2.53432     3.96856    -2.81220
C     -2.87759     5.41878    -2.69086
O     -3.12715     3.09270    -2.18676
O     -1.54458     3.71365    -3.62914
H     -1.38300     2.73542    -3.70683
H     -3.93656     5.54859    -2.89994
H     -2.69813     5.72418    -1.66262
H     -2.27464     6.00449    -3.37553
C     -2.21823    -1.53135     1.22240
C     -3.23670    -0.46440     1.46617
O     -2.27482    -2.31654     0.29080
O     -1.24265    -1.55184     2.11560
H     -0.62200    -2.28383     1.92189
H     -3.60544    -0.09365     0.51660
H     -4.06754    -0.90440     2.01902
H     -2.79053     0.32990     2.05144
C      3.68420    -1.20474     0.36674
C      4.11019    -2.25710     1.33464
O      4.17557    -0.09032     0.34448
O      2.72145    -1.58530    -0.45813
H      2.46545    -0.83610    -1.05841
H      4.84043    -1.85355     2.02483
H      3.25459    -2.63905     1.87977
H      4.53899    -3.10197     0.80323
C     -0.06231     2.06719     1.33479
C      1.11746     1.16904     1.54494
O     -0.92472     2.24490     2.15993
O     -0.07233     2.64453     0.12159
H     -0.81613     3.27493     0.08031
H      1.21250     0.47083     0.71904
H      2.03394     1.75506     1.58110
H      0.98744     0.62282     2.47305
C      2.94216    -5.27105     3.56098
C      3.55852    -5.85558     4.79917
O      3.53942    -5.10564     2.52400
O      1.65426    -4.94835     3.72962
H      1.30910    -4.55722     2.90794
H      2.86229    -5.82008     5.62902
H      3.84851    -6.88407     4.59422
H      4.46554    -5.30331     5.03291
