 48
-1375.5538230497223
C     -1.29016    -3.28426     1.60011
C     -0.20619    -4.04590     2.29694
O     -2.00612    -2.47522     2.17018
O     -1.39345    -3.56702     0.31862
H     -2.02716    -2.94121    -0.11537
H     -0.14806    -5.05549     1.90149
H      0.73926    -3.54436     2.09810
H     -0.38906    -4.05114     3.36589
C      1.20115    -0.84990    -0.99741
C      0.10267    -1.15506    -1.95598
O      2.16806    -0.15393    -1.29415
O      1.05590    -1.38528     0.19255
H      1.72304    -1.02734     0.83779
H     -0.71261    -0.46608    -1.74137
H      0.44927    -1.01439    -2.97439
H     -0.26405    -2.16627    -1.80469
C      1.11498     2.79368    -2.84781
C      0.57710     3.75400    -3.87050
O      1.33215     3.08483    -1.69068
O      1.32065     1.58343    -3.35184
H      1.64617     0.98683    -2.65019
H      1.24637     3.79586    -4.72704
H     -0.39037     3.40259    -4.22445
H      0.47329     4.73810    -3.42922
C     -0.38037     1.44480     0.83546
C     -0.76851     0.98342     2.20611
O     -1.01988     1.23022    -0.16910
O      0.77577     2.11005     0.83163
H      0.96703     2.42590    -0.07601
H     -0.06202     0.22332     2.53472
H     -0.72857     1.80834     2.91649
H     -1.76368     0.55374     2.17939
C      3.45023     0.62943     1.69477
C      3.91681     1.58034     2.75323
O      2.73530    -0.33334     1.92490
O      3.88276     0.93759     0.48959
H      3.36721     0.44271    -0.18126
H      3.73930     1.16296     3.73784
H      4.97011     1.80819     2.61151
H      3.35577     2.50706     2.64360
C     -3.58928    -0.90730    -0.27094
C     -4.34926     0.13986    -1.01791
O     -2.92359    -1.76851    -0.82710
O     -3.68466    -0.79839     1.03602
H     -3.11116    -1.47717     1.48029
H     -5.32649     0.29037    -0.56851
H     -3.78928     1.07042    -0.94206
H     -4.43387    -0.14472    -2.06047
