 72
-2063.3293130749103
C      3.00663    -0.23400     0.31282
C      2.67858    -1.23237     1.37281
O      2.16386     0.20230    -0.45844
O      4.26223     0.15222     0.29802
H      4.40917     0.79921    -0.43899
H      2.64961    -0.72381     2.33434
H      1.71145    -1.66439     1.16739
H      3.43987    -2.00603     1.41922
C     -1.78859     4.00432    -0.99882
C     -2.02476     5.07254     0.02250
O     -0.84441     3.98106    -1.76940
O     -2.71431     3.05747    -0.97863
H     -2.50305     2.37494    -1.63971
H     -1.79808     6.04503    -0.40622
H     -3.04974     5.02949     0.37420
H     -1.33941     4.89558     0.84976
C     -2.64607    -1.78485    -0.67968
C     -3.28834    -2.81739     0.18544
O     -1.47833    -1.83199    -1.03279
O     -3.45950    -0.81259    -1.03792
H     -3.01087    -0.19015    -1.65378
H     -2.53409    -3.37359     0.72178
H     -3.97881    -2.34705     0.87765
H     -3.83822    -3.50754    -0.45266
C     -1.74437    -3.79565     3.83691
C     -1.90454    -5.13083     4.48277
O     -0.65387    -3.24034     3.71964
O     -2.85725    -3.28254     3.38522
H     -2.69799    -2.41630     2.92733
H     -1.07492    -5.31732     5.15496
H     -2.85640    -5.18342     5.00077
H     -1.90027    -5.87966     3.69257
C     -1.06042     0.62662    -3.25110
C     -0.44489     1.52858    -4.26578
O     -2.13206     0.89192    -2.70837
O     -0.38640    -0.46203    -2.99973
H     -0.79916    -0.99235    -2.26387
H      0.60894     1.30175    -4.36858
H     -0.95448     1.36501    -5.21550
H     -0.59877     2.55750    -3.95353
C     -1.17326    -0.31951     2.32692
C     -0.99059     0.91354     1.51356
O     -2.23072    -0.92841     2.38104
O     -0.09440    -0.71508     2.97782
H     -0.27001    -1.59306     3.38270
H     -1.93801     1.16428     1.05560
H     -0.62986     1.73397     2.12337
H     -0.24122     0.73255     0.74754
C      3.75124     2.10338    -2.57349
C      4.01607     3.11947    -3.64022
O      4.52636     1.90744    -1.65201
O      2.61290     1.45574    -2.72157
H      2.40278     0.94193    -1.90345
H      3.43273     4.01167    -3.41570
H      5.07091     3.37318    -3.64734
H      3.70131     2.73966    -4.60794
C      1.66096     3.76341     0.35325
C      3.01981     3.75665     0.98897
O      0.63885     3.55724     0.96477
O      1.70839     4.01610    -0.95288
H      0.79496     3.98441    -1.31012
H      3.79225     3.95956     0.25636
H      3.04328     4.50227     1.78228
H      3.18632     2.78483     1.44739
C     -0.04948    -4.64944     0.55799
C      0.55397    -4.93593    -0.78425
O     -1.08394    -5.11918     0.96465
O      0.68236    -3.77285     1.26498
H      0.23419    -3.59858     2.11149
H      0.01093    -5.74400    -1.26195
H      0.48957    -4.03707    -1.39708
H      1.60624    -5.19169    -0.67565
