 80
-2292.58482322011
C      1.35679     0.58048     2.78447
C     -0.05380     1.04118     2.71931
O      2.17248     0.77244     1.88311
O      1.66479    -0.07022     3.87717
H      2.60526    -0.39531     3.84899
H     -0.34067     1.46724     3.67349
H     -0.19981     1.73729     1.90912
H     -0.67749     0.16726     2.55271
C     -3.24312     0.59355     3.82604
C     -3.70601     1.87371     4.43597
O     -3.56645     0.24014     2.69411
O     -2.45633    -0.12381     4.59174
H     -2.20944    -0.97988     4.15174
H     -3.52491     1.86900     5.50513
H     -3.15643     2.68677     3.96222
H     -4.75888     2.01978     4.21273
C     -0.04447    -5.80227    -1.67174
C     -0.51080    -7.19819    -1.95552
O      0.77066    -5.55664    -0.79369
O     -0.59121    -4.88099    -2.43447
H     -0.25562    -3.98088    -2.18757
H     -0.86165    -7.64684    -1.03011
H     -1.29658    -7.18912    -2.70160
H      0.33498    -7.78597    -2.30424
C      1.29438     2.81967    -0.71705
C      1.21820     3.65915    -1.95692
O      0.33336     2.31597    -0.18537
O      2.53927     2.66756    -0.27115
H      2.50412     2.11578     0.52717
H      0.17898     3.85475    -2.18595
H      1.76529     4.59122    -1.83794
H      1.64669     3.11663    -2.79640
C      1.26498    -2.29234    -0.97882
C      1.80780    -0.91167    -0.80392
O      0.26546    -2.52750    -1.64577
O      1.93069    -3.22389    -0.33808
H      1.53148    -4.11524    -0.51979
H      1.74574    -0.37286    -1.74373
H      1.19226    -0.38767    -0.08138
H      2.82400    -0.93795    -0.43059
C     -2.61436     3.01644     0.77801
C     -2.36174     3.99292    -0.33005
O     -2.32740     3.21037     1.93489
O     -3.19411     1.88949     0.34870
H     -3.33468     1.30882     1.11258
H     -2.97090     4.88025    -0.16094
H     -1.31764     4.28307    -0.28407
H     -2.59363     3.55259    -1.29266
C      0.13639     3.69764    -5.61138
C      0.56658     4.75204    -6.59028
O      0.72639     2.63487    -5.48460
O     -0.91588     4.03737    -4.89894
H     -1.21775     3.28590    -4.32279
H      1.47998     4.44238    -7.08356
H     -0.22040     4.90429    -7.32611
H      0.71584     5.69374    -6.06719
C     -1.99802    -2.62183     2.16277
C     -1.37617    -3.79454     1.46727
O     -1.69844    -2.28752     3.29846
O     -2.89949    -2.00233     1.43128
H     -3.21697    -1.19098     1.89322
H     -1.99714    -4.67295     1.62781
H     -1.32536    -3.60449     0.40162
H     -0.38937    -3.98600     1.87176
C      4.88302    -1.00805     2.79127
C      6.17327    -1.77190     2.73260
O      4.16566    -0.97804     3.77660
O      4.59830    -0.37450     1.66260
H      3.74535     0.10729     1.74741
H      6.37168    -2.22873     3.69460
H      6.10284    -2.53763     1.96288
H      6.98296    -1.10023     2.45761
C     -1.04966     0.98285    -3.19567
C     -1.55442    -0.08884    -2.29340
O     -1.65806     2.02383    -3.39350
O      0.11819     0.71561    -3.74688
H      0.35457     1.40347    -4.42310
H     -2.45260     0.24413    -1.79193
H     -1.74730    -0.99055    -2.87007
H     -0.78644    -0.34410    -1.56783
