 48
-1375.5458287539977
C     -1.04185    -2.72449     2.24640
C     -1.81499    -2.83030     3.52059
O     -1.33802    -3.28912     1.21050
O      0.00964    -1.91269     2.33682
H      0.48425    -1.92310     1.48929
H     -2.64845    -2.13135     3.45709
H     -2.21368    -3.83593     3.62111
H     -1.18664    -2.57194     4.36627
C      1.55846    -2.35293    -1.18873
C      0.98556    -3.69699    -1.49748
O      1.64083    -1.92438    -0.03979
O      1.97894    -1.67673    -2.22576
H      2.31338    -0.78439    -1.94464
H      0.03740    -3.80896    -0.98047
H      0.86672    -3.81827    -2.56810
H      1.66459    -4.45497    -1.11086
C     -0.64167     2.08404     1.15437
C     -0.93623     1.63951     2.55035
O     -1.29528     1.72986     0.18514
O      0.40396     2.88231     1.05581
H      0.50817     3.16524     0.10887
H     -1.89411     1.13312     2.56785
H     -0.15354     0.95325     2.86476
H     -0.93197     2.49729     3.22029
C      0.43298     2.73389    -2.40185
C      1.06853     2.81731    -3.75278
O      0.71945     3.49494    -1.48871
O     -0.43028     1.75220    -2.28990
H     -0.79674     1.72681    -1.36720
H      0.33150     2.62432    -4.52645
H      1.52912     3.79056    -3.88327
H      1.83235     2.04380    -3.80909
C      3.13270     1.03003    -0.28806
C      3.83969     2.31245    -0.00911
O      2.79062     0.69070    -1.41088
O      2.89361     0.30486     0.78432
H      2.44159    -0.53027     0.52352
H      3.08580     3.09027     0.10013
H      4.40842     2.23898     0.91155
H      4.48094     2.57096    -0.84573
C     -3.60940    -0.81978     0.47882
C     -4.49181     0.14958    -0.24931
O     -3.36037    -0.73971     1.65957
O     -3.12163    -1.76711    -0.32745
H     -2.51819    -2.34716     0.17502
H     -4.76393    -0.24294    -1.22310
H     -5.37471     0.35211     0.35203
H     -3.94150     1.08146    -0.36976
