 48
-1375.5417048945487
C     -0.95598    -2.71762     2.18705
C      0.02454    -3.18842     3.21304
O     -1.52961    -1.64074     2.25752
O     -1.13375    -3.56693     1.19877
H     -1.78707    -3.20574     0.54823
H      1.02542    -3.06003     2.80564
H     -0.07458    -2.59622     4.11609
H     -0.12637    -4.24435     3.42077
C      1.33859    -0.62404    -0.40763
C     -0.10833    -0.51840    -0.73677
O      2.21115     0.04988    -0.95011
O      1.61960    -1.51258     0.51269
H      2.58624    -1.47600     0.75509
H     -0.22361    -0.01632    -1.68830
H     -0.55432    -1.50451    -0.75623
H     -0.60063     0.06357     0.03607
C      0.87669     2.86442    -2.65393
C      0.74645     4.06007    -3.54777
O     -0.04315     2.39346    -2.01825
O      2.10745     2.35930    -2.63997
H      2.13731     1.58366    -2.05362
H      1.72263     4.48218    -3.75744
H      0.27611     3.74920    -4.47849
H      0.09518     4.79073    -3.07707
C     -2.96182     2.41517     0.23350
C     -3.63904     2.41788     1.57703
O     -3.51097     2.64913    -0.81321
O     -1.65485     2.10281     0.33662
H     -1.23092     2.16888    -0.53759
H     -4.66423     2.75548     1.46257
H     -3.62262     1.41227     1.99151
H     -3.10222     3.06983     2.26462
C      4.98286    -0.51813     0.81479
C      6.37410    -0.45925     1.37134
O      4.16287    -1.34179     1.19224
O      4.73092     0.38984    -0.10618
H      3.80854     0.29586    -0.43683
H      6.85963    -1.41872     1.21328
H      6.93610     0.33513     0.89450
H      6.31942    -0.29560     2.44458
C     -3.44090    -1.45918    -0.42343
C     -4.39524    -0.95877    -1.46195
O     -2.78285    -2.47867    -0.56198
O     -3.37936    -0.70054     0.65086
H     -2.69528    -1.04183     1.28477
H     -4.41349    -1.64673    -2.29982
H     -5.38959    -0.86908    -1.02961
H     -4.08427     0.03064    -1.78893
