 40
-1146.2858325114987
C      1.75358    -2.72288    -0.99517
C      2.12997    -3.34427    -2.30116
O      0.64657    -2.83650    -0.49239
O      2.72977    -2.02861    -0.44618
H      2.37242    -1.47161     0.27394
H      1.47429    -4.17909    -2.52370
H      2.01464    -2.58505    -3.07396
H      3.17043    -3.65373    -2.28075
C      0.31978    -0.18977     1.46876
C     -0.34254     0.93368     2.19111
O      1.51546    -0.22606     1.22145
O     -0.49737    -1.16505     1.12061
H     -0.04845    -1.83751     0.53095
H     -1.04068     1.40471     1.50138
H     -0.90554     0.54158     3.03469
H      0.39674     1.64938     2.53341
C      2.57158     2.63458    -0.50950
C      2.78339     4.07777    -0.86556
O      2.61824     1.71552    -1.30087
O      2.32370     2.47520     0.78366
H      2.10282     1.54231     0.94814
H      3.18935     4.16049    -1.86718
H      1.82587     4.59289    -0.81905
H      3.44847     4.54329    -0.14314
C     -4.02380    -0.34195     1.78715
C     -5.35963    -0.55245     2.44876
O     -3.78984     0.49472     0.95170
O     -3.10100    -1.20396     2.24870
H     -2.26113    -1.04572     1.78403
H     -5.69351    -1.57539     2.28503
H     -5.26362    -0.40574     3.52317
H     -6.08021     0.14661     2.04061
C     -0.48291     0.58507    -1.64862
C     -1.70825    -0.14071    -2.11538
O     -0.49195     1.55394    -0.92788
O      0.64340     0.01946    -2.09534
H      1.39925     0.58005    -1.81353
H     -2.58132     0.27952    -1.62785
H     -1.80675    -0.04908    -3.19730
H     -1.61555    -1.19793    -1.87501
