 48
-1375.543469632684
C     -0.49961     0.61984     2.00632
C     -0.81020     1.98480     2.53928
O     -1.32477    -0.25038     1.85197
O      0.78750     0.47034     1.69050
H      0.93143    -0.43201     1.35901
H     -1.02879     2.64671     1.70325
H     -1.69617     1.93538     3.16161
H      0.02937     2.39628     3.08971
C      1.09044    -3.11769     0.73819
C     -0.25786    -3.21488     1.35964
O      1.80463    -2.11827     0.83296
O      1.45030    -4.17512     0.05991
H      2.34785    -4.05432    -0.35218
H     -0.97218    -2.81237     0.64032
H     -0.50059    -4.25185     1.56876
H     -0.30349    -2.59638     2.24810
C     -2.41192     4.99854     0.24570
C     -2.21965     6.48024     0.37351
O     -3.20543     4.38365     0.94370
O     -1.65740     4.43226    -0.67111
H     -1.83908     3.46153    -0.72569
H     -1.39013     6.81154    -0.24028
H     -3.13627     6.97662     0.06342
H     -2.05275     6.72824     1.41784
C     -3.13372     1.27001    -0.28226
C     -3.46586    -0.16063    -0.51910
O     -2.14424     1.82045    -0.76807
O     -3.96717     1.89494     0.50663
H     -3.69112     2.84018     0.64987
H     -3.08433    -0.47676    -1.48250
H     -2.94951    -0.74090     0.24660
H     -4.53614    -0.31719    -0.43039
C      4.62332    -2.99683    -0.74929
C      6.03900    -3.01678    -1.24327
O      3.80413    -3.83793    -1.09027
O      4.35061    -2.00419     0.07007
H      3.41017    -2.04552     0.37316
H      6.03695    -3.11388    -2.32511
H      6.56236    -2.11890    -0.93624
H      6.53565    -3.89535    -0.83816
C      0.09088    -0.98995    -1.91172
C      1.27016    -1.56991    -2.63018
O     -0.77175    -1.65121    -1.38198
O      0.10358     0.34358    -1.89210
H     -0.68352     0.66094    -1.41839
H      1.02342    -2.56588    -2.97887
H      1.58532    -0.93649    -3.45279
H      2.09919    -1.65893    -1.93044
