 72
-2063.3275264341924
C      4.38365    -0.72822    -2.14768
C      5.28908     0.35417    -2.64151
O      4.64918    -1.42895    -1.18638
O      3.26590    -0.84171    -2.83559
H      2.77120    -1.64913    -2.54897
H      6.31260     0.13402    -2.35751
H      5.19499     0.46402    -3.71744
H      4.98403     1.28578    -2.16972
C     -0.21961     2.31684    -2.24287
C      0.98216     2.02505    -3.08747
O     -0.23200     3.17895    -1.36995
O     -1.25465     1.56011    -2.52453
H     -2.05528     1.83882    -2.00614
H      1.87411     2.34694    -2.56642
H      1.03715     0.96412    -3.30451
H      0.88559     2.56897    -4.02765
C     -3.50254     3.01041    -0.24009
C     -4.70730     2.99919     0.63681
O     -3.41267     2.35803    -1.26402
O     -2.52561     3.78252     0.20510
H     -1.74241     3.67323    -0.36768
H     -4.86683     3.98015     1.07342
H     -5.57240     2.67741     0.06800
H     -4.53140     2.28696     1.44285
C     -2.06870    -2.07382    -1.18887
C     -1.29444    -2.15753    -2.46311
O     -1.82258    -2.77711    -0.21600
O     -3.03361    -1.18463    -1.20518
H     -3.40664    -1.04487    -0.30592
H     -1.46833    -1.27370    -3.06360
H     -0.24144    -2.26412    -2.23162
H     -1.62012    -3.04487    -3.00383
C      1.54395    -1.06692     1.76717
C      0.96937    -2.29755     2.40441
O      2.08855    -0.16827     2.35807
O      1.39230    -1.06874     0.43656
H      1.88192    -0.32047     0.06513
H      0.86874    -2.14491     3.47583
H      0.00387    -2.54129     1.96783
H      1.64441    -3.13379     2.22773
C     -3.65980    -1.47073     2.23270
C     -4.33599    -1.26638     3.55052
O     -3.80229    -0.69748     1.28496
O     -2.90878    -2.54239     2.16158
H     -2.49969    -2.65923     1.25944
H     -5.41301    -1.29977     3.39747
H     -4.02779    -2.03236     4.25302
H     -4.08104    -0.27523     3.91709
C      2.85928     2.32622     0.42157
C      3.88150     2.31078     1.50612
O      2.72325     1.45136    -0.40979
O      2.08375     3.41216     0.44559
H      1.41127     3.34087    -0.25300
H      3.96037     3.28878     1.96896
H      3.57584     1.56711     2.24101
H      4.83313     1.99169     1.08934
C     -1.70684     1.59547     2.61026
C     -0.50614     2.36938     3.05933
O     -2.74282     1.50134     3.21955
O     -1.50502     0.99529     1.41908
H     -2.31954     0.52814     1.17565
H      0.26461     1.67554     3.39073
H     -0.10736     2.94385     2.22954
H     -0.78629     3.02611     3.87925
C      2.30699    -3.72637    -1.02884
C      1.39154    -4.81818    -0.57264
O      2.10227    -3.09589    -2.05218
O      3.33426    -3.52072    -0.23598
H      3.87150    -2.75876    -0.57236
H      1.39501    -5.61294    -1.31661
H      1.70993    -5.20757     0.38711
H      0.37872    -4.42778    -0.50997
