 56
-1604.802349945939
C      0.70951    -0.06755    -2.31960
C      2.05496    -0.49663    -2.79941
O     -0.32931    -0.64731    -2.56783
O      0.74507     1.02996    -1.57581
H     -0.15424     1.25340    -1.26348
H      2.64125    -0.82701    -1.94356
H      1.95106    -1.30538    -3.51402
H      2.57819     0.34480    -3.24691
C      0.06871    -1.98560     0.34911
C     -0.68540    -3.17771    -0.13499
O      1.27310    -1.84895     0.25950
O     -0.70704    -1.05240     0.88853
H     -0.14576    -0.33230     1.22770
H     -1.42003    -3.48273     0.60568
H     -1.23325    -2.90198    -1.03537
H      0.00130    -3.98762    -0.35702
C      1.30155     2.00259     1.31479
C      2.70886     1.94297     0.83836
O      0.77071     1.10755     1.97043
O      0.66073     3.10883     1.01775
H     -1.40014     3.39295     5.97186
H      2.71925     1.71502    -0.22425
H      3.18600     2.90784     0.99048
H      3.24152     1.15148     1.34771
C     -2.60804     1.27460    -0.04419
C     -3.32518     0.44426    -1.05315
O     -1.55739     1.85646    -0.25854
O     -3.23487     1.34199     1.11680
H     -2.74540     1.93660     1.71448
H     -3.80631    -0.40393    -0.57988
H     -4.09261     1.05819    -1.52411
H     -2.63098     0.09862    -1.80744
C     -2.88147    -2.72386    -3.40158
C     -3.82116    -3.58943    -4.20165
O     -3.01905    -2.50130    -2.22201
O     -1.88525    -2.23713    -4.14638
H     -1.30412    -1.67536    -3.59798
H     -3.50267    -3.64417    -5.23627
H     -3.84913    -4.58313    -3.75937
H     -4.82490    -3.17470    -4.13387
C     -1.34065     2.94023     3.88100
C     -1.89104     3.69422     5.05446
O     -1.76199     3.08893     2.74290
O     -0.36012     2.11934     4.19296
H      0.00260     1.69334     3.38047
H     -0.30030     2.96033     1.10571
H     -1.75218     4.75830     4.88030
H     -2.96096     3.51120     5.11816
C      4.59335    -1.66095     0.00888
C      6.05884    -2.01746     0.03041
O      4.17239    -0.58108    -0.33901
O      3.82194    -2.67103     0.40750
H      2.88137    -2.39730     0.38273
H      6.43934    -2.00644    -0.98944
H      6.60127    -1.25867     0.58989
H      6.20808    -2.99649     0.47169
