 56
-1604.8021354770244
C      1.51479     1.45769    -1.52582
C      1.79968     0.10972    -2.11847
O      2.20377     2.43995    -1.64572
O      0.37408     1.44823    -0.80876
H      0.18910     2.35368    -0.51309
H      2.65757     0.17969    -2.78016
H      2.00741    -0.59858    -1.31865
H      0.92845    -0.25028    -2.66199
C      0.60367    -2.97692     0.22630
C     -0.21369    -4.04203    -0.44329
O      1.80704    -2.90511     0.15432
O     -0.14973    -2.09484     0.89007
H      0.43490    -1.48488     1.39293
H      0.41087    -4.90119    -0.66076
H     -1.06239    -4.32348     0.17080
H     -0.59979    -3.65325    -1.38192
C      1.09455     4.60093     0.44063
C      1.75209     5.45476    -0.58491
O     -0.00979     4.08410     0.28013
O      1.79192     4.42860     1.53886
H     -2.25939     1.03524     3.65986
H      2.49507     6.09127    -0.11764
H      2.23829     4.78924    -1.29673
H      1.00208     6.03484    -1.11351
C     -2.59899    -4.05140    -3.64291
C     -2.65565    -5.18325    -4.62721
O     -3.22155    -4.08190    -2.59081
O     -1.82568    -3.05396    -4.00682
H     -1.83744    -2.32579    -3.32582
H     -2.02710    -4.97219    -5.48437
H     -2.33290    -6.09509    -4.13081
H     -3.68766    -5.32878    -4.93649
C     -2.50446    -1.17512    -1.12945
C     -2.41573    -0.04551    -0.16105
O     -1.85371    -1.19848    -2.16701
O     -3.30861    -2.14924    -0.77082
H     -3.32146    -2.86210    -1.46141
H     -1.47863    -0.15794     0.37235
H     -2.37924     0.90198    -0.68638
H     -3.24334    -0.06713     0.53961
C     -0.62367     2.23104     3.00944
C     -1.24848     1.27277     3.97056
O      0.52790     2.63626     3.14026
O     -1.39953     2.59197     2.01618
H     -0.92472     3.20924     1.40822
H      1.33592     3.81195     2.15702
H     -0.63981     0.37281     3.99908
H     -1.24747     1.71937     4.96200
C      2.58438    -0.18085     2.41211
C      3.70013    -1.08636     2.01343
O      1.40144    -0.46749     2.34431
O      2.98961     0.99906     2.87320
H      2.20934     1.55158     3.04225
H      3.49072    -1.50873     1.03441
H      4.64457    -0.55381     2.02718
H      3.73394    -1.92394     2.70887
