 64
-1834.0666706623156
C     -1.27994     1.93599    -0.44039
C     -0.47142     3.16742    -0.17803
O     -1.60172     1.14367     0.43144
O     -1.60608     1.77976    -1.70406
H     -2.14002     0.95936    -1.84139
H     -0.99327     4.03386    -0.58189
H     -0.30908     3.28244     0.88650
H      0.48433     3.07589    -0.68264
C      3.60365     2.63926     1.08276
C      3.68328     4.01069     1.65767
O      3.94061     1.63089     1.69730
O      3.11016     2.58707    -0.13350
H      3.06405     1.66212    -0.47799
H      4.50888     4.06767     2.35937
H      3.77814     4.74883     0.86883
H      2.75212     4.18081     2.19786
C      0.67866    -1.63942    -3.41448
C     -0.39367    -1.70881    -4.45145
O      1.31405    -2.59594    -3.00462
O      0.87649    -0.40608    -2.97148
H      1.56303    -0.40787    -2.28265
H     -0.10632    -1.09724    -5.30422
H     -0.53895    -2.73811    -4.75839
H     -1.31142    -1.29984    -4.03832
C      3.87195    -0.74826    -0.75828
C      4.28036    -1.93260    -1.57177
O      3.04300     0.07594    -1.13580
O      4.48553    -0.66332     0.39451
H      4.24768     0.16365     0.88502
H      3.95623    -2.83606    -1.06048
H      3.80498    -1.88155    -2.54199
H      5.36339    -1.96525    -1.66433
C     -3.86320    -0.51467     2.09959
C     -5.14088    -1.27104     2.34274
O     -2.82456    -0.74634     2.67005
O     -4.00190     0.42912     1.16471
H     -3.10621     0.76422     0.92911
H     -5.98227    -0.58908     2.44863
H     -5.33326    -1.91863     1.48859
H     -5.04149    -1.88215     3.23403
C     -3.87916    -1.07748    -1.61952
C     -5.36913    -0.97118    -1.74422
O     -3.10415    -0.33812    -2.20191
O     -3.49034    -2.03551    -0.81082
H     -2.50276    -2.08328    -0.78826
H     -5.62399    -0.33734    -2.58714
H     -5.81228    -1.95702    -1.86039
H     -5.76361    -0.52447    -0.83316
C      0.75525     1.63543     3.22305
C     -0.51081     1.22585     3.89646
O      0.94858     2.72792     2.73753
O      1.66731     0.65254     3.18491
H      2.47332     0.98061     2.75506
H     -1.15258     0.71372     3.18234
H     -0.30876     0.53530     4.70991
H     -1.03333     2.10766     4.25343
C      0.00895    -2.20148    -0.04278
C     -0.16642    -1.71470     1.35405
O     -0.89415    -2.29634    -0.85422
O      1.25980    -2.53239    -0.33780
H      1.32357    -2.73406    -1.30210
H     -0.64287    -2.49339     1.94896
H      0.79434    -1.47145     1.78675
H     -0.82528    -0.85538     1.36156
