 48
-1375.5420304565976
C     -1.80759    -0.80802     2.30167
C     -2.24036    -2.22489     2.51649
O     -1.44446    -0.06896     3.18154
O     -1.85014    -0.44831     1.00665
H     -1.54134     0.47014     0.93537
H     -2.77174    -2.60004     1.64956
H     -1.34710    -2.82667     2.68027
H     -2.85508    -2.27897     3.41246
C      1.15098    -2.82204     0.08093
C      0.85496    -4.28645     0.02604
O      1.42194    -2.15991    -0.91236
O      1.06886    -2.30246     1.28638
H      1.36502    -1.35474     1.27346
H      1.01659    -4.74425     0.99635
H     -0.19253    -4.40180    -0.25358
H      1.46645    -4.75559    -0.73907
C      0.70098     2.51796    -2.18084
C      1.22524     2.29294    -3.56341
O      1.09172     3.43326    -1.47049
O     -0.20048     1.64127    -1.79747
H     -0.48277     1.82596    -0.86792
H      0.42740     1.95127    -4.21623
H      1.67132     3.20708    -3.94066
H      1.98534     1.51439    -3.51650
C     -0.38888     2.97008     1.45597
C     -0.73107     3.02466     2.90362
O     -0.94742     2.21099     0.66470
O      0.56786     3.78125     1.07969
H      0.74213     3.68873     0.10506
H     -0.12712     3.76933     3.40927
H     -1.78980     3.25121     3.00579
H     -0.58511     2.03553     3.33200
C      2.63561     0.63718     0.29947
C      3.57333     1.78476     0.49991
O      1.95461     0.16673     1.19402
O      2.59671     0.19985    -0.94178
H      2.09327    -0.65595    -0.97485
H      3.48455     2.14875     1.51662
H      4.59548     1.46443     0.30683
H      3.32471     2.57558    -0.20257
C     -2.33254    -2.50605    -1.78472
C     -1.34137    -1.41871    -2.04665
O     -2.16471    -3.44651    -1.04434
O     -3.47824    -2.36452    -2.48588
H     -4.03425    -3.12055    -2.26068
H     -0.52092    -1.82673    -2.62969
H     -1.79070    -0.58201    -2.56950
H     -0.92499    -1.08762    -1.10425
