 48
-1375.5375227874595
C     -0.40149     2.46939    -2.98481
C     -1.62917     3.23568    -3.38339
O      0.73086     2.85423    -3.13716
O     -0.71548     1.29593    -2.41259
H      0.09846     0.86516    -2.10603
H     -1.37812     3.94340    -4.16719
H     -2.41054     2.55469    -3.70835
H     -1.98775     3.78481    -2.51441
C      1.82042    -3.39821     0.33180
C      1.61534    -4.84347     0.63934
O      1.01803    -2.74048    -0.33290
O      2.91016    -2.87951     0.82977
H      3.01408    -1.92681     0.55369
H      1.54384    -5.39038    -0.29827
H      2.43390    -5.22024     1.24299
H      0.66100    -4.96811     1.14820
C     -0.07376     0.89423     2.11289
C      0.35582    -0.52093     2.34802
O      0.24046     1.50210     1.09953
O     -0.80196     1.41103     3.07079
H     -1.07086     2.33656     2.83819
H      1.35870    -0.51958     2.77192
H     -0.32087    -1.03983     3.01648
H      0.41292    -1.01704     1.38804
C     -1.46325     4.35167     1.21168
C     -2.06937     5.67034     0.83192
O     -1.52194     3.89657     2.33980
O     -0.86197     3.74362     0.20315
H     -0.43425     2.90783     0.51596
H     -2.73330     6.00734     1.61903
H     -1.27187     6.39749     0.69068
H     -2.60460     5.57211    -0.10832
C      2.54134     0.22012    -0.75245
C      2.90515     1.58374    -1.20998
O      3.12923    -0.37295     0.13353
O      1.50487    -0.31706    -1.38676
H      1.33303    -1.22789    -1.04778
H      3.82452     1.89856    -0.72920
H      3.00187     1.60276    -2.29111
H      2.09548     2.26490    -0.95435
C     -2.25762    -4.43457     0.30949
C     -3.72464    -4.68026     0.10653
O     -1.58226    -4.98671     1.14418
O     -1.77001    -3.53384    -0.55522
H     -0.82404    -3.40457    -0.37793
H     -4.15912    -3.92182    -0.53543
H     -3.85216    -5.66225    -0.34558
H     -4.21584    -4.69954     1.07543
