 32
-917.0182953126398
C      1.59434    -2.32941     1.80906
C      2.74327    -3.29476     1.89576
O      1.63797    -1.17567     2.16042
O      0.49981    -2.90327     1.29093
H     -0.20463    -2.23039     1.23057
H      3.59280    -2.80722     2.36037
H      2.45076    -4.17034     2.47253
H      3.01434    -3.63642     0.89798
C     -1.47870    -0.09775     1.88687
C     -1.31650    -0.61662     3.28001
O     -1.38585    -0.82413     0.89876
O     -1.71563     1.18262     1.81418
H     -1.79935     1.49997     0.86742
H     -1.96198    -0.07531     3.96546
H     -1.52947    -1.67926     3.28917
H     -0.27746    -0.46738     3.56578
C      1.76522     1.26796    -2.08755
C      1.52837     0.81975    -0.67863
O      0.95681     1.81113    -2.79890
O      3.01306     0.99240    -2.51979
H      3.06380     1.31358    -3.42846
H      2.40702     0.93322    -0.05411
H      0.69631     1.37770    -0.26839
H      1.26678    -0.23753    -0.67660
C     -2.01565     1.36276    -1.66199
C     -2.26597     1.92858    -3.01637
O     -1.90417     2.04002    -0.65172
O     -1.91217     0.04572    -1.65011
H     -1.76392    -0.27173    -0.73331
H     -2.89260     1.25135    -3.58821
H     -2.72068     2.90916    -2.92617
H     -1.30435     2.02514    -3.51766
