 72
-2063.3261482986927
C      3.90952    -2.47000     0.81271
C      5.23146    -2.26294     0.15332
O      3.67229    -2.10528     1.96198
O      3.00475    -3.05291     0.06236
H      2.16638    -3.21791     0.56172
H      6.02672    -2.37697     0.88375
H      5.35329    -2.95247    -0.67477
H      5.24675    -1.23966    -0.21900
C     -1.40172     3.55424     0.05788
C     -2.69988     2.82750    -0.03180
O     -0.63114     3.64457    -0.90010
O     -1.14146     4.08413     1.22412
H     -0.28915     4.59754     1.21185
H     -3.26985     2.95508     0.88015
H     -3.25743     3.17551    -0.89527
H     -2.51210     1.77251    -0.19915
C      1.71762     5.79042     0.20060
C      2.90209     6.70553     0.23805
O      1.09435     5.46159     1.19759
O      1.42129     5.37267    -1.01313
H      0.64073     4.76910    -0.99154
H      3.78488     6.16228    -0.09156
H      2.75156     7.53149    -0.45290
H      3.05364     7.07729     1.24442
C      0.55583    -3.31996     2.56554
C     -0.67839    -3.75773     3.27628
O      0.76656    -3.56265     1.38090
O      1.40313    -2.66965     3.32090
H      2.22551    -2.43355     2.82749
H     -0.40717    -4.35113     4.14795
H     -1.21863    -2.88137     3.62275
H     -1.29274    -4.33206     2.59588
C     -2.23893    -4.11064    -0.64911
C     -2.99898    -4.20015    -1.93757
O     -2.60119    -4.56990     0.40666
O     -1.08257    -3.43670    -0.78905
H     -0.57076    -3.50665     0.03319
H     -3.20063    -3.20257    -2.31890
H     -2.39184    -4.72147    -2.67659
H     -3.92694    -4.73925    -1.77479
C     -3.26060     0.28166    -3.10196
C     -3.04299     0.17261    -4.58733
O     -3.72646     1.24273    -2.54798
O     -2.84145    -0.81928    -2.45021
H     -2.94111    -0.68978    -1.48299
H     -3.23734    -0.84080    -4.93093
H     -3.68481     0.88088    -5.10123
H     -2.00320     0.41533    -4.80436
C      3.13625     1.15198     0.79972
C      2.64189     2.55525     0.62308
O      3.58768     0.48012    -0.09841
O      3.00631     0.71224     2.05562
H      3.27693    -0.21914     2.09682
H      2.81013     3.14367     1.51849
H      3.13825     3.00674    -0.22761
H      1.57392     2.52838     0.42170
C      0.04025     0.26119    -1.56746
C      0.62048    -0.97717    -2.15123
O     -0.21785     0.40337    -0.38523
O     -0.19190     1.22044    -2.44362
H     -0.51611     2.00802    -1.97223
H      0.75511    -0.86076    -3.22325
H      1.57851    -1.17485    -1.67254
H     -0.04668    -1.80953    -1.93892
C     -2.64707    -0.98068     1.27605
C     -3.49225    -1.60247     2.33976
O     -3.10166    -0.51850     0.24897
O     -1.35111    -1.00299     1.54804
H     -0.87300    -0.49938     0.85143
H     -3.50266    -2.67930     2.17288
H     -3.07974    -1.40218     3.32296
H     -4.50832    -1.22854     2.26683
