 64
-1834.0547995359366
C     -1.40215    -1.17294    -2.76462
C     -0.07057    -1.37934    -3.41026
O     -2.09572    -0.19454    -2.99407
O     -1.75601    -2.12488    -1.92126
H     -2.62320    -1.90962    -1.51020
H     -0.20838    -1.45993    -4.48685
H      0.54522    -0.50463    -3.21494
H      0.39509    -2.27225    -3.01368
C      4.20709     3.00145    -0.15656
C      3.85778     4.44422    -0.02303
O      3.70262     2.27041    -1.00996
O      5.09698     2.57135     0.70141
H      5.29594     1.60601     0.56198
H      4.09245     4.94858    -0.95817
H      2.78587     4.52887     0.13628
H      4.40893     4.88574     0.79932
C      0.94736    -2.42169     0.08079
C     -0.18328    -2.75228     1.00060
O      1.56176    -3.21617    -0.58503
O      1.22836    -1.09902     0.06096
H      2.02148    -0.96779    -0.47827
H     -0.90274    -1.94379     1.01569
H     -0.66238    -3.66760     0.67080
H      0.19107    -2.87451     2.01480
C      4.91031    -0.78836    -0.29253
C      5.11097    -2.26494    -0.31954
O      5.63123    -0.01783     0.30983
O      3.85147    -0.38321    -0.99846
H      3.82438     0.60499    -1.04322
H      5.90964    -2.54380     0.35880
H      4.18013    -2.75897    -0.05884
H      5.36991    -2.56348    -1.33403
C     -4.63865    -0.24980    -0.91428
C     -5.87386     0.11413    -0.15731
O     -4.11161    -1.35819    -0.83108
O     -4.15702     0.70976    -1.65916
H     -3.37925     0.38449    -2.18542
H     -6.33307     0.99632    -0.58978
H     -6.55614    -0.73026    -0.15923
H     -5.58495     0.31338     0.87335
C     -0.56080     0.39583     2.44023
C      0.70972     1.17704     2.30884
O     -0.72026    -0.53053     3.19920
O     -1.52932     0.82610     1.61440
H     -2.36834     0.38030     1.84588
H      0.51723     2.23769     2.42992
H      1.42883     0.83634     3.04639
H      1.11216     1.03787     1.31250
C      0.19893     2.83712    -0.79059
C     -1.27767     2.82200    -1.02664
O      0.74676     3.44103     0.10103
O      0.87446     2.09706    -1.68735
H      1.82042     2.19275    -1.49486
H     -1.60711     3.82804    -1.28506
H     -1.52883     2.13054    -1.82338
H     -1.78274     2.52887    -0.11161
C     -3.64062    -1.70387     2.57654
C     -3.35732    -2.18161     3.96048
O     -3.80850    -0.53381     2.27642
O     -3.67367    -2.67679     1.67228
H     -3.86055    -2.29048     0.79952
H     -4.01335    -1.67207     4.66149
H     -3.47512    -3.25736     4.02022
H     -2.33241    -1.90161     4.20214
