 40
-1146.2871976377457
C      1.79249    -1.55569     0.34603
C      2.50000    -2.50268     1.26351
O      2.34020    -0.73426    -0.34712
O      0.46028    -1.70305     0.40205
H      0.04493    -1.12430    -0.25533
H      3.52690    -2.61322     0.93135
H      2.50463    -2.07533     2.26554
H      1.99623    -3.46454     1.29608
C     -1.13564     0.60768    -2.14271
C      0.10386     1.44091    -2.13833
O     -1.43560    -0.12716    -1.20127
O     -1.87512     0.73453    -3.21334
H     -2.69991     0.17901    -3.15403
H      0.94044     0.82256    -1.82581
H      0.27173     1.87177    -3.12015
H     -0.01711     2.23055    -1.39971
C      3.93243     1.38864     1.51511
C      5.25254     1.23699     0.82521
O      3.12190     2.25513     1.23164
O      3.72714     0.47975     2.44994
H      2.80180     0.54878     2.79187
H      5.49781     2.15227     0.29955
H      6.02460     0.97586     1.54313
H      5.15876     0.42300     0.10793
C     -4.58951    -1.13044    -2.03316
C     -5.96807    -1.71210    -1.93853
O     -4.11891    -0.69222    -3.06946
O     -3.94031    -1.14103    -0.88408
H     -3.03180    -0.77264    -0.99041
H     -6.54174    -1.16606    -1.19343
H     -6.45514    -1.65679    -2.90426
H     -5.90161    -2.74670    -1.61013
C      0.29231     0.92163     2.37333
C     -1.15215     0.54978     2.50503
O      1.14929     0.53057     3.14875
O      0.54008     1.69383     1.33780
H      1.50303     1.94130     1.29861
H     -1.67268     0.76022     1.57792
H     -1.22113    -0.50600     2.74865
H     -1.59131     1.12297     3.32051
