 64
-1834.069250279429
C     -4.72229    -3.83423    -0.48651
C     -5.97365    -4.54169    -0.90823
O     -4.45725    -3.62591     0.68783
O     -3.95621    -3.44697    -1.48576
H     -3.14017    -3.00324    -1.15175
H     -6.83088    -3.95675    -0.58372
H     -5.99270    -4.67371    -1.98366
H     -6.02515    -5.50183    -0.40219
C      3.85528     2.18600     0.60399
C      3.67402     3.66110     0.49331
O      3.29868     1.51123     1.46821
O      4.66072     1.67071    -0.28354
H      4.74627     0.68628    -0.15340
H      2.82445     3.96070     1.09435
H      4.58242     4.15094     0.84235
H      3.51692     3.91851    -0.54845
C      1.38934    -1.14629    -1.95928
C      2.36169    -0.20159    -2.59420
O      1.70710    -2.18463    -1.43209
O      0.12245    -0.70522    -2.01248
H     -0.46762    -1.32353    -1.53967
H      2.05182     0.03682    -3.60897
H      2.37649     0.72410    -2.02284
H      3.34840    -0.64940    -2.59316
C      4.01168    -1.63421     0.69041
C      4.00554    -3.12377     0.60512
O      4.77013    -0.93580     0.03334
O      3.11851    -1.13335     1.52312
H      3.16810    -0.14958     1.52749
H      5.00976    -3.47903     0.39825
H      3.61198    -3.54869     1.52241
H      3.35750    -3.40568    -0.22334
C     -1.48535    -2.08510     0.63312
C     -0.22888    -1.40600     1.05558
O     -1.79071    -2.19519    -0.55737
O     -2.24044    -2.53406     1.59488
H     -3.05860    -2.97922     1.24280
H     -0.30842    -0.36576     0.74760
H     -0.09211    -1.46796     2.12976
H      0.61311    -1.84804     0.53182
C      0.29280     2.71339    -1.73571
C     -0.17954     2.46220    -3.13660
O      1.43795     2.59500    -1.37956
O     -0.68625     3.07688    -0.89643
H     -0.29778     3.21723     0.00773
H      0.43860     3.03123    -3.82928
H     -0.05308     1.40778    -3.36686
H     -1.22348     2.73683    -3.25647
C      0.01164     2.58428     2.39728
C     -1.21410     2.67914     3.24608
O      0.27136     3.35467     1.48511
O      0.80252     1.57611     2.70866
H      1.62194     1.61515     2.18115
H     -1.00545     2.31396     4.24678
H     -1.57155     3.70365     3.26509
H     -1.97805     2.04840     2.79321
C     -3.14069     0.97211    -0.06345
C     -4.34657     0.07600    -0.04621
O     -2.29698     0.98519     0.80388
O     -3.08606     1.73618    -1.15241
H     -2.24637     2.23930    -1.13773
H     -4.20802    -0.71834    -0.77550
H     -4.44869    -0.36951     0.93617
H     -5.24643     0.62545    -0.31200
