 32
-917.0168204897323
C      2.18260     0.54933    -2.64039
C      1.84388    -0.85678    -2.24929
O      1.72763     1.16302    -3.57124
O      3.10641     1.09515    -1.81183
H      3.26059     1.99122    -2.13358
H      0.96388    -1.18197    -2.79376
H      2.68482    -1.50877    -2.48698
H      1.65928    -0.91291    -1.18062
C     -1.85269     0.97533    -1.59803
C     -1.88818     1.48727    -3.00166
O     -2.38555     1.55256    -0.66518
O     -1.18832    -0.16078    -1.46039
H     -1.24148    -0.47500    -0.52676
H     -2.58275     2.31666    -3.06464
H     -0.89129     1.81217    -3.28626
H     -2.18417     0.68767    -3.67554
C      1.76009    -0.77451     2.43581
C      3.25124    -0.78214     2.62405
O      0.96418    -0.39689     3.25818
O      1.41301    -1.24295     1.22477
H      0.44162    -1.22026     1.15288
H      3.73585    -0.35412     1.74861
H      3.50680    -0.22041     3.51566
H      3.59804    -1.80968     2.72951
C     -2.03968    -0.49150     1.97240
C     -2.18512    -1.08557     3.33309
O     -1.38101    -1.02635     1.07905
O     -2.67308     0.63548     1.79840
H     -2.55372     0.98708     0.87170
H     -2.93614    -0.54412     3.89632
H     -2.44952    -2.13552     3.23641
H     -1.22015    -1.02453     3.83141
