 40
-1146.279001955857
C      0.30397    -0.12239    -1.23884
C      0.94903     1.12894    -1.74855
O      0.04665    -0.33353    -0.07541
O      0.05668    -1.01043    -2.21124
H     -0.39801    -1.77907    -1.82054
H      2.01647     1.08011    -1.53866
H      0.79368     1.22804    -2.81844
H      0.56609     1.98739    -1.20722
C     -1.02051    -3.83032    -0.29480
C      0.38845    -3.61416     0.15470
O     -1.50211    -3.22968    -1.25361
O     -1.69102    -4.69744     0.41451
H     -2.63690    -4.78030     0.10274
H      1.02681    -3.53366    -0.71980
H      0.43035    -2.65862     0.67443
H      0.71124    -4.41690     0.80927
C      1.90575     2.42741     1.94161
C      1.16136     1.21440     2.39656
O      1.93811     2.78613     0.76993
O      2.52026     3.07156     2.90915
H      2.98055     3.88069     2.56276
H      1.53118     0.34645     1.85970
H      1.26903     1.09472     3.46831
H      0.11630     1.31466     2.11646
C     -4.76128    -4.25098    -1.19661
C     -6.21894    -4.37828    -1.51760
O     -4.21680    -4.93990    -0.34751
O     -4.13414    -3.33905    -1.91111
H     -3.18151    -3.29495    -1.66419
H     -6.41293    -5.38790    -1.87079
H     -6.79463    -4.23622    -0.60683
H     -6.50605    -3.65232    -2.26903
C      3.59618     5.70841     0.84986
C      4.18936     7.02123     0.42708
O      3.72707     5.27429     1.98378
O      2.93692     5.08399    -0.10246
H      2.56820     4.22309     0.22848
H      3.91654     7.24931    -0.59679
H      3.83853     7.79911     1.10043
H      5.27063     6.96638     0.52841
