 48
-1375.540927536606
C     -2.74342     0.57512     0.50001
C     -3.94757     0.27149    -0.31619
O     -2.29636    -0.18841     1.34713
O     -2.16155     1.72486     0.22451
H     -1.40579     1.90810     0.85052
H     -3.59341    -0.24460    -1.21015
H     -4.60161    -0.39498     0.23969
H     -4.45356     1.18766    -0.60245
C      2.17949    -0.49652    -0.49214
C      1.12235     0.41122    -1.03160
O      3.00893    -0.12205     0.32511
O      2.11684    -1.72797    -0.94990
H      2.85695    -2.28024    -0.58167
H      1.43034     1.44021    -0.90029
H      0.90279     0.19244    -2.06909
H      0.20940     0.24486    -0.46912
C     -3.67396     3.88670    -2.40945
C     -3.65237     4.89708    -3.52410
O     -4.66517     3.47983    -1.85907
O     -2.43099     3.47886    -2.09573
H     -2.47569     2.82672    -1.37825
H     -4.66360     5.22752    -3.73025
H     -3.02823     5.74257    -3.24132
H     -3.21632     4.44726    -4.41438
C      0.39446     1.35657     2.60536
C      1.64752     1.67939     3.35605
O     -0.14836     2.14113     1.84403
O     -0.04851     0.13251     2.81680
H     -0.88040    -0.02081     2.31406
H      1.79340     2.75342     3.38920
H      1.59972     1.25953     4.35663
H      2.48158     1.21579     2.83043
C      4.92761    -2.81207     0.84341
C      5.99174    -3.72751     1.37569
O      4.09409    -3.19096     0.03348
O      4.97624    -1.58859     1.32079
H      4.24598    -1.03143     0.94091
H      5.51572    -4.58432     1.84608
H      6.58411    -4.09981     0.54350
H      6.62111    -3.20393     2.08594
C     -1.21214    -2.44460    -1.06457
C     -0.83301    -3.67891    -1.82782
O     -1.44703    -1.37226    -1.57015
O     -1.25201    -2.66397     0.25692
H     -1.52999    -1.85043     0.70670
H     -1.19547    -3.60241    -2.84883
H      0.25243    -3.75995    -1.84323
H     -1.23659    -4.55989    -1.33620
