 32
-917.0146873766137
C      1.53002    -1.21861    -2.56286
C      2.57372    -1.86603    -3.43421
O      1.75162    -0.53325    -1.59826
O      0.29106    -1.49695    -3.00476
H     -0.34976    -1.07801    -2.40341
H      2.47085    -2.94866    -3.38309
H      2.42326    -1.56923    -4.47038
H      3.56353    -1.57443    -3.10173
C     -2.46309     0.38047    -1.76427
C     -2.78022     0.28278    -3.22529
O     -1.65909    -0.37215    -1.22018
O     -3.12864     1.30153    -1.12561
H     -2.87532     1.33109    -0.15411
H     -1.90251    -0.04661    -3.77071
H     -3.56162    -0.46437    -3.35094
H     -3.13907     1.23575    -3.60021
C      2.61006     0.27261     2.49083
C      2.14005    -0.81968     1.58709
O      1.97135     0.80020     3.36976
O      3.88335     0.65289     2.23038
H      4.07544     1.37031     2.84575
H      2.93361    -1.54384     1.42061
H      1.26645    -1.28950     2.02021
H      1.86497    -0.40262     0.62024
C     -1.65990     0.72272     1.99346
C     -1.31335     0.91793     3.42939
O     -2.47882     1.41341     1.40549
O     -1.00284    -0.26014     1.40403
H     -1.24308    -0.30745     0.45069
H     -2.06487     1.54146     3.89950
H     -1.23612    -0.04559     3.92403
H     -0.33934     1.39636     3.49796
