 32
-917.0182455540876
C      2.17551     1.04542    -1.69668
C      3.64868     0.83991    -1.58407
O      1.62838     1.72602    -2.52357
O      1.48749     0.36886    -0.74525
H      0.53498     0.53998    -0.85723
H      4.15103     1.38526    -2.37635
H      3.99706     1.17560    -0.61072
H      3.88342    -0.21971    -1.64051
C     -2.05407     1.14393    -1.57679
C     -1.49047     1.87259    -2.75011
O     -1.35074     0.62479    -0.71138
O     -3.36122     1.10709    -1.54760
H     -3.70670     0.62045    -0.74895
H     -0.90143     2.71359    -2.39497
H     -0.80086     1.22040    -3.27641
H     -2.28893     2.20907    -3.40152
C      3.80899    -1.44784     1.55663
C      4.12477    -2.31383     2.74578
O      4.63905    -0.99153     0.81083
O      2.49073    -1.24107     1.42427
H      2.32521    -0.67991     0.64816
H      4.68931    -3.18016     2.40939
H      4.76216    -1.75391     3.42625
H      3.21514    -2.62330     3.24779
C     -3.72089    -0.61851     1.48161
C     -4.35635    -1.27071     2.67057
O     -4.37275    -0.16194     0.55648
O     -2.40296    -0.58521     1.53244
H     -2.03665    -0.15190     0.72954
H     -4.97086    -2.10003     2.33030
H     -3.59927    -1.61572     3.36481
H     -5.01695    -0.55377     3.15124
