 80
-2292.5846088981925
C      2.05106     3.98558     0.09408
C      0.78617     4.71697     0.39545
O      3.02964     3.99861     0.82105
O      2.01768     3.29967    -1.04029
H      2.85081     2.78570    -1.15764
H      0.25865     4.95509    -0.52124
H      0.16986     4.05469     0.99841
H      1.00676     5.60839     0.97414
C     -4.11686     1.22136     0.13390
C     -4.95020     0.75165     1.27555
O     -3.35973     2.19338     0.20555
O     -4.24179     0.52015    -0.95696
H     -3.60407     0.81596    -1.66006
H     -4.91512     1.48501     2.07057
H     -5.96534     0.55184     0.94084
H     -4.52319    -0.18732     1.63201
C      1.22457    -6.24186    -1.45963
C      2.25333    -7.32002    -1.61395
O      0.51114    -5.86447    -2.37620
O      1.17781    -5.72906    -0.24773
H      0.44902    -5.06587    -0.17621
H      2.20519    -7.73373    -2.61359
H      3.24066    -6.90130    -1.43008
H      2.08479    -8.09710    -0.87241
C     -2.42031    -1.90819     2.60766
C     -2.37502    -1.06697     3.84627
O     -3.39300    -2.05303     1.90470
O     -1.23595    -2.47789     2.34550
H     -1.30436    -3.01149     1.53624
H     -3.38108    -0.76768     4.11667
H     -1.90668    -1.61395     4.66235
H     -1.79277    -0.16997     3.65067
C     -1.32456    -3.39005    -1.07852
C     -2.20664    -2.19393    -0.95478
O     -0.78696    -3.91469    -0.10177
O     -1.14980    -3.83063    -2.29445
H     -0.56566    -4.63874    -2.31041
H     -2.30421    -1.68508    -1.90664
H     -3.17876    -2.50257    -0.58146
H     -1.79104    -1.52674    -0.21156
C     -2.32008     3.21943     3.15367
C     -1.62697     3.80621     4.34225
O     -2.68736     2.06689     3.07080
O     -2.48328     4.09979     2.16613
H     -2.89025     3.62469     1.42486
H     -0.55394     3.67303     4.20540
H     -1.84172     4.86695     4.42028
H     -1.92783     3.27564     5.23942
C      0.06694     0.90243     1.25416
C      1.13508     0.01095     0.70329
O      0.27446     1.92815     1.84921
O     -1.17406     0.45016     1.01184
H     -1.80545     1.08849     1.39493
H      0.90011    -0.26400    -0.31602
H      2.08379     0.53743     0.73371
H      1.19836    -0.89859     1.29602
C     -1.50322     1.94743    -2.59778
C     -0.28581     1.98417    -3.46990
O     -2.41500     1.15186    -2.75840
O     -1.50642     2.85168    -1.63287
H     -2.23518     2.67689    -0.99736
H      0.29454     2.87384    -3.25832
H      0.32028     1.10178    -3.27552
H     -0.59401     1.95860    -4.51275
C      5.09278     1.67452    -0.41775
C      6.32470     0.85243    -0.61414
O      4.21015     1.76475    -1.27183
O      5.03247     2.29843     0.72941
H      4.25178     2.91996     0.78582
H      6.02978    -0.18197    -0.76963
H      6.83413     1.19403    -1.51298
H      6.97054     0.94481     0.25096
C      3.12645    -1.44747    -1.65541
C      2.30727    -2.68858    -1.82968
O      4.09028    -1.37114    -0.93557
O      2.66516    -0.41422    -2.37419
H      3.22290     0.35392    -2.16451
H      1.88683    -2.76052    -2.82749
H      2.91322    -3.55862    -1.60158
H      1.48954    -2.66792    -1.11386
