 48
-1375.5401975852599
C      1.10259     0.68965     2.64199
C      1.95097    -0.14227     3.54736
O      1.30947     1.86831     2.41096
O      0.11247     0.01139     2.08272
H     -0.45047     0.60836     1.54924
H      2.59170     0.49887     4.14239
H      1.32140    -0.76041     4.18198
H      2.56181    -0.80087     2.93152
C      3.54147    -4.52347    -0.39205
C      3.89809    -5.97169    -0.22152
O      2.90846    -4.12343    -1.35898
O      3.96565    -3.74339     0.57644
H      3.69480    -2.79882     0.41955
H      2.98460    -6.56106    -0.21794
H      4.48837    -6.29234    -1.07638
H      4.45053    -6.12028     0.69899
C     -0.93534     2.78387     0.04134
C     -1.55411     3.51483    -1.09736
O     -1.43179     1.77149     0.54377
O      0.20560     3.27893     0.44600
H      0.58257     2.77105     1.21532
H     -2.62786     3.57818    -0.94908
H     -1.10165     4.49513    -1.20620
H     -1.36936     2.91859    -1.99072
C     -5.12093     2.12929     0.65781
C     -6.50543     2.31712     1.21036
O     -4.84391     2.01341    -0.50896
O     -4.19697     2.11370     1.63694
H     -3.33444     1.96790     1.22493
H     -6.71877     1.54639     1.94882
H     -6.57256     3.28137     1.71209
H     -7.22536     2.27052     0.40141
C      2.62491    -0.83129    -0.80974
C      2.22923     0.59914    -0.96588
O      3.21610    -1.24468     0.17826
O      2.24882    -1.59987    -1.80862
H      2.50134    -2.54803    -1.64642
H      2.81652     1.21605    -0.29811
H      2.32021     0.92719    -1.99428
H      1.18112     0.68276    -0.70084
C     -1.11602    -0.31291    -2.35426
C     -1.04764    -1.40205    -3.38182
O     -0.54711     0.75170    -2.43797
O     -1.86833    -0.64219    -1.29841
H     -1.86931     0.11829    -0.69767
H     -0.29655    -2.12851    -3.07520
H     -2.00567    -1.91029    -3.45845
H     -0.75516    -0.97970    -4.33757
