 72
-2063.328762055906
C      1.51271    -3.31661     1.28289
C      2.37210    -2.18955     0.80860
O      1.56692    -3.81233     2.38477
O      0.64796    -3.72937     0.34360
H      0.08586    -4.41528     0.73612
H      3.30170    -2.59582     0.40796
H      1.86004    -1.63152     0.03270
H      2.60629    -1.54882     1.65370
C      1.81764     2.89428    -0.94514
C      2.93443     3.61542    -1.62950
O      1.16867     2.01574    -1.47788
O      1.58235     3.31316     0.28494
H      0.82419     2.81810     0.65891
H      3.73055     3.86394    -0.93526
H      3.30406     2.99498    -2.43673
H      2.54727     4.53694    -2.05841
C     -1.61114     2.20294     1.38335
C     -1.98215     3.26992     0.40812
O     -0.45113     1.84430     1.57103
O     -2.62516     1.66454     2.01380
H     -2.32923     0.93054     2.61293
H     -2.14192     2.77624    -0.55129
H     -2.89635     3.76817     0.71636
H     -1.16702     3.97762     0.31023
C     -1.06559    -5.62514     2.93348
C      0.08126    -6.56773     3.09037
O     -1.40168    -5.17191     1.84130
O     -1.66694    -5.31293     4.05327
H     -2.39596    -4.65073     3.90685
H     -0.00590    -7.11823     4.02076
H      0.12185    -7.23387     2.23418
H      0.99095    -5.96801     3.10191
C     -1.25986    -0.33580    -1.26096
C     -1.90301    -1.69008    -1.25087
O     -1.85960     0.70426    -1.40134
O      0.06123    -0.39855    -1.07248
H      0.44370     0.49670    -1.17203
H     -1.86410    -2.10552    -0.24763
H     -2.93856    -1.60782    -1.56840
H     -1.35771    -2.36791    -1.90511
C     -3.74019    -2.85935     2.66466
C     -4.70548    -1.72130     2.57800
O     -3.52007    -3.47568     3.69454
O     -3.13927    -3.14339     1.52366
H     -2.51604    -3.90103     1.63074
H     -4.14745    -0.79690     2.44159
H     -5.35918    -1.85348     1.71968
H     -5.28711    -1.66873     3.49149
C      4.09959     4.92988    -5.20549
C      5.31936     5.77091    -5.44718
O      3.04622     5.41837    -4.82235
O      4.27612     3.64676    -5.42443
H      3.43901     3.13471    -5.24802
H      6.11442     5.17045    -5.87296
H      5.05769     6.59324    -6.10708
H      5.63677     6.20003    -4.49947
C      0.98603     2.77249    -4.63206
C     -0.23791     1.93541    -4.46224
O      2.08432     2.30928    -4.89840
O      0.76910     4.05983    -4.45750
H      1.59446     4.57725    -4.63288
H     -0.50743     1.92177    -3.40903
H     -1.06470     2.36925    -5.01760
H     -0.03985     0.92337    -4.79565
C     -0.75299    -0.76524     3.76744
C     -0.44008    -1.87307     4.71825
O     -1.88046    -0.33572     3.58319
O      0.30737    -0.29232     3.13810
H      0.04792     0.44316     2.54319
H     -1.36708    -2.28908     5.09335
H      0.14851    -2.62812     4.20649
H      0.15344    -1.47791     5.54156
