 48
-1375.5407899104773
C      0.87375     0.96107    -2.60803
C     -0.22211     1.63944    -3.37726
O      1.68209     1.52792    -1.91019
O      0.84462    -0.36938    -2.74930
H      1.55155    -0.73982    -2.19809
H     -0.29981     1.21756    -4.37633
H     -1.16562     1.46513    -2.86223
H     -0.02932     2.70534    -3.41801
C      1.42253    -3.24879     1.83739
C      0.47470    -4.14620     2.55639
O      1.53623    -3.24375     0.61138
O      2.10971    -2.45199     2.61274
H      2.74284    -1.89857     2.08363
H      0.44958    -5.11421     2.06591
H      0.75434    -4.23174     3.60034
H     -0.51690    -3.70153     2.47159
C     -0.54225     1.48204     0.80839
C      0.59979     0.53215     0.93090
O     -1.48480     1.28219     0.05169
O     -0.42902     2.55030     1.55761
H     -1.20498     3.15594     1.43931
H      0.97949     0.52530     1.94562
H      0.27194    -0.45752     0.63584
H      1.37866     0.86960     0.25715
C     -3.46903     3.95278     0.48424
C     -4.63192     4.89460     0.35436
O     -2.53223     4.18512     1.23137
O     -3.55963     2.87907    -0.27198
H     -2.77164     2.28308    -0.14864
H     -5.08690     5.02717     1.33276
H     -4.26248     5.86531     0.03318
H     -5.35694     4.50981    -0.35336
C      3.64988    -0.72204    -0.02055
C      4.47395     0.29791    -0.72598
O      3.70798    -0.92269     1.17643
O      2.83365    -1.41543    -0.81584
H      2.36997    -2.11804    -0.29458
H      5.09794     0.81962    -0.00932
H      5.09114    -0.18970    -1.47899
H      3.81786     0.99925    -1.23726
C     -1.78413    -2.48892    -0.24108
C     -3.01475    -2.04071    -0.97219
O     -1.64112    -2.41769     0.95685
O     -0.84160    -2.96689    -1.06475
H     -0.07343    -3.21018    -0.52588
H     -2.98920    -0.95473    -1.05768
H     -3.05433    -2.48093    -1.96381
H     -3.89279    -2.30816    -0.39086
