 64
-1834.0650824678175
C     -0.12716    -0.73201    -2.58075
C      1.25128    -1.14140    -2.97337
O     -0.48422     0.43125    -2.49236
O     -0.92823    -1.74918    -2.33097
H     -1.82503    -1.42089    -2.10117
H      1.81741    -0.28001    -3.30792
H      1.74533    -1.57784    -2.11045
H      1.20270    -1.89526    -3.75555
C      4.74562     2.83785     0.48308
C      4.92146     4.29730     0.77076
O      4.09916     2.44949    -0.48769
O      5.32715     2.03311     1.32620
H      5.14461     1.07098     1.09834
H      5.57908     4.72414     0.01572
H      3.95646     4.79093     0.68803
H      5.35152     4.44538     1.75515
C      0.39365    -2.17643     0.64694
C     -0.62116    -3.20792     1.03833
O      1.53144    -2.42168     0.32593
O     -0.10457    -0.93226     0.67267
H      0.59717    -0.29640     0.41605
H     -1.04173    -2.96130     2.01143
H     -1.43486    -3.20844     0.31421
H     -0.15311    -4.18795     1.06699
C      4.44581    -1.02289    -0.18089
C      4.62265    -2.47041    -0.47533
O      4.88796    -0.47400     0.81675
O      3.76369    -0.36064    -1.10279
H      3.54445     0.52522    -0.76325
H      3.66346    -2.96490    -0.32999
H      4.92208    -2.60257    -1.51215
H      5.35882    -2.89392     0.19863
C     -3.74862     0.39045    -1.99785
C     -5.19812     0.75190    -2.00136
O     -3.35074    -0.74997    -1.76504
O     -2.94330     1.38746    -2.25695
H     -1.99500     1.09538    -2.28772
H     -5.32088     1.79714    -2.26179
H     -5.71915     0.11516    -2.71254
H     -5.60379     0.55296    -1.01252
C     -2.00256     0.26829     2.86451
C     -0.74540     0.91506     3.36358
O     -2.45269    -0.76839     3.29009
O     -2.57102     0.97414     1.88003
H     -3.36350     0.49699     1.56535
H      0.02717     0.81985     2.60395
H     -0.90988     1.97508     3.54360
H     -0.41449     0.42723     4.27485
C      0.93084     2.13055    -0.14283
C     -0.56360     2.24826    -0.13333
O      1.54314     1.13433     0.21247
O      1.54800     3.22028    -0.55720
H      2.51477     3.04260    -0.57497
H     -0.87737     2.78727     0.75989
H     -0.90808     2.78155    -1.01387
H     -1.00621     1.26200    -0.09626
C     -4.54522    -1.68431     1.18397
C     -5.05635    -2.39919     2.38957
O     -4.66940    -0.48651     0.98992
O     -3.90765    -2.47603     0.33029
H     -3.62080    -1.94926    -0.43565
H     -6.03698    -2.01380     2.65625
H     -5.08837    -3.46732     2.20679
H     -4.37468    -2.18539     3.21193
