 40
-1146.2724989099768
C      2.05930    -3.83088    -2.02675
C      2.81245    -4.97009    -2.63972
O      1.01346    -3.98303    -1.41585
O      2.62463    -2.65374    -2.20977
H      2.10118    -1.95639    -1.76045
H      2.98968    -5.72802    -1.88146
H      2.19595    -5.42211    -3.41319
H      3.74824    -4.62152    -3.06043
C     -0.07211    -0.89477    -0.63704
C     -0.97474     0.22744    -0.26933
O      1.12269    -0.75681    -0.86325
O     -0.66337    -2.07682    -0.69286
H     -0.01433    -2.79270    -0.94763
H     -1.18455     0.14780     0.79651
H     -0.47412     1.16983    -0.44743
H     -1.91220     0.14424    -0.81089
C      2.30957     2.22623     0.99526
C      3.23336     3.22335     1.60597
O      1.09504     2.29605     1.02513
O      2.94368     1.22119     0.39651
H      2.28549     0.61696     0.01773
H      4.26489     2.93229     1.44324
H      3.03145     4.20236     1.18003
H      3.01385     3.30883     2.66679
C     -4.39720    -2.45445    -1.03396
C     -5.75672    -3.09447    -0.95646
O     -4.17659    -1.33827    -1.42932
O     -3.43299    -3.28634    -0.59695
H     -2.57986    -2.83142    -0.67295
H     -5.98459    -3.34676     0.07804
H     -6.50036    -2.40728    -1.34352
H     -5.76350    -4.01884    -1.53149
C      0.11707     5.32508     2.72359
C     -0.82625     6.36858     3.25961
O      1.31547     5.37222     2.85603
O     -0.53153     4.34802     2.07814
H      0.11081     3.69294     1.74266
H     -0.55686     6.59326     4.28846
H     -0.69920     7.28156     2.68041
H     -1.85421     6.02940     3.19313
