 72
-2063.32356548439
C      2.33793    -0.11761    -0.80197
C      0.84614    -0.09714    -0.77341
O      3.01692     0.58415    -0.06547
O      2.86247    -0.96299    -1.66144
H      3.85156    -0.89660    -1.65954
H      0.43645    -0.85918    -1.42099
H      0.53134    -0.24963     0.25577
H      0.49315     0.88894    -1.05959
C     -3.01758     4.24976     0.91541
C     -3.46173     4.69352     2.26531
O     -1.87040     4.31963     0.50534
O     -3.98965     3.74509     0.16513
H     -3.61882     3.49594    -0.69809
H     -2.95809     4.07343     3.00526
H     -3.13985     5.72023     2.42500
H     -4.53749     4.60403     2.35754
C     -2.46492    -0.68432    -3.12430
C     -2.71716    -2.09857    -3.53033
O     -1.35344    -0.18432    -3.06063
O     -3.56847    -0.02159    -2.82375
H     -3.34735     0.90744    -2.59170
H     -3.51580    -2.13828    -4.26629
H     -1.80593    -2.53582    -3.92243
H     -3.03816    -2.65529    -2.65283
C     -0.77404    -4.34679     1.51302
C     -0.32985    -5.73557     1.82273
O     -0.59100    -3.40343     2.28364
O     -1.37188    -4.19596     0.36005
H     -1.66179    -3.25669     0.21076
H      0.75637    -5.75930     1.74783
H     -0.59996    -5.97850     2.84722
H     -0.77127    -6.43473     1.12235
C     -1.89399     3.06417    -2.70901
C     -1.77271     4.54844    -2.85242
O     -2.88897     2.53156    -2.21988
O     -0.85218     2.39585    -3.12715
H     -1.00625     1.41466    -3.06526
H     -2.71376     4.95465    -3.21232
H     -1.57646     4.96764    -1.86728
H     -0.95724     4.79523    -3.52396
C     -2.50555    -0.98519     0.96003
C     -3.41026     0.19858     0.83872
O     -2.24378    -1.72427     0.02364
O     -2.00461    -1.14214     2.16698
H     -1.44629    -1.95603     2.22360
H     -3.77262     0.28974    -0.17603
H     -4.23975     0.10859     1.53618
H     -2.84618     1.08515     1.11757
C      6.17053    -0.10849    -0.76779
C      7.67122    -0.11012    -0.77866
O      5.51590    -0.78280    -1.54951
O      5.63795     0.66030     0.15591
H      4.64658     0.66386     0.08282
H      8.02542    -1.13521    -0.70515
H      8.01572     0.28576    -1.73116
H      8.05349     0.48829     0.04012
C     -0.33490     2.06079     2.33017
C      0.74567     1.19562     2.90970
O     -1.26658     2.48682     2.96926
O     -0.18299     2.29130     1.01572
H     -0.77945     3.02716     0.76182
H      1.12271     1.65775     3.82095
H      0.30547     0.23854     3.17997
H      1.54926     1.04632     2.19798
C      2.81568    -3.15854     1.69231
C      4.17843    -2.58734     1.43519
O      2.52097    -4.31914     1.54913
O      1.94258    -2.21815     2.08783
H      1.07439    -2.63634     2.22713
H      4.93621    -3.32697     1.67171
H      4.26802    -2.34112     0.38065
H      4.32793    -1.68191     2.01355
