 64
-1834.0555613121765
C     -0.92657     0.58972    -2.40237
C      0.49110     0.53104    -2.86951
O     -1.67894     1.51473    -2.66124
O     -1.30604    -0.45543    -1.68219
H     -2.28524    -0.45752    -1.56678
H      1.14116     0.78797    -2.03726
H      0.73697    -0.47579    -3.18964
H      0.63563     1.24522    -3.67537
C      4.24389     2.60913     0.31682
C      3.73998     4.00521     0.47438
O      3.48435     1.64422     0.24196
O      5.54288     2.49231     0.26737
H      5.81114     1.54252     0.14605
H      3.15387     4.06326     1.38817
H      4.55990     4.71447     0.49131
H      3.05797     4.22289    -0.34445
C      0.99229    -2.86660    -0.73026
C     -0.42743    -3.21137    -0.39354
O      1.49566    -2.93371    -1.82254
O      1.67429    -2.43676     0.35594
H      2.55592    -2.14230     0.07983
H     -0.91426    -3.68197    -1.23978
H     -0.46823    -3.85407     0.48101
H     -0.95971    -2.29482    -0.15314
C      5.49745    -1.02516    -0.15426
C      5.95052    -2.42869    -0.38476
O      6.24870    -0.07132    -0.08785
O      4.18042    -0.91171    -0.02164
H      3.92800     0.03728     0.09059
H      5.38183    -2.86700    -1.20134
H      7.01139    -2.44022    -0.60313
H      5.74901    -3.01719     0.50838
C     -4.54730     0.74616    -1.26486
C     -5.87847     0.81929    -0.58276
O     -3.97903    -0.32109    -1.49243
O     -4.04713     1.90678    -1.59114
H     -3.14612     1.81005    -2.00472
H     -6.60167     0.24703    -1.15905
H     -5.78772     0.35525     0.39666
H     -6.19512     1.85261    -0.49184
C     -0.97594    -0.76599     2.46992
C      0.31984    -0.20800     2.98645
O     -1.38157    -1.87077     2.73841
O     -1.62666     0.07815     1.65442
H     -2.51771    -0.29373     1.46654
H      0.18782     0.81328     3.33397
H      0.68884    -0.84313     3.78678
H      1.05026    -0.19668     2.17900
C     -0.02811     2.84637     0.74944
C     -1.46535     2.92128     0.34635
O      0.44842     3.29750     1.75893
O      0.71597     2.19207    -0.16791
H      1.63559     2.15193     0.14197
H     -1.57044     3.44026    -0.60371
H     -1.85676     1.91830     0.21351
H     -2.04170     3.42834     1.11242
C     -4.05932    -2.31513     1.09549
C     -4.10976    -3.37463     2.14347
O     -4.00598    -1.11837     1.32546
O     -4.07117    -2.79497    -0.14168
H     -4.05529    -2.04118    -0.75512
H     -4.87224    -3.12009     2.87603
H     -4.30482    -4.34051     1.69263
H     -3.14958    -3.38055     2.65751
