 40
-1146.2862633970412
C      1.11123    -2.72255    -0.50488
C      0.15577    -3.86448    -0.65076
O      1.84586    -2.58278     0.45982
O      1.07855    -1.87591    -1.51619
H      1.73905    -1.15643    -1.38691
H      0.39587    -4.63704     0.07058
H     -0.84969    -3.49326    -0.46618
H      0.19447    -4.25048    -1.66533
C      3.65668     0.18529    -0.14722
C      4.60514     1.32382     0.02561
O      2.88268     0.10313    -1.09900
O      3.71008    -0.71741     0.80234
H      3.05340    -1.44753     0.65358
H      5.14980     1.47771    -0.90240
H      4.01875     2.21891     0.22275
H      5.28196     1.12605     0.84863
C      0.84782     2.83294    -0.48554
C     -0.25383     3.85072    -0.45657
O      1.71919     2.74435     0.34623
O      0.73549     2.00298    -1.53225
H      1.45480     1.35264    -1.48045
H     -0.51587     4.15006    -1.46754
H     -1.13024     3.40053     0.00767
H      0.05875     4.70410     0.13672
C     -4.57186    -0.16479    -0.13323
C     -5.92163    -0.19935    -0.78984
O     -3.88763    -1.17150    -0.01093
O     -4.20440     1.02354     0.28701
H     -3.29744     0.99282     0.69711
H     -6.54887    -0.91954    -0.27058
H     -6.37581     0.78459    -0.77346
H     -5.80508    -0.54684    -1.81358
C     -1.10946    -0.07387     1.47791
C      0.25274    -0.04155     2.08745
O     -1.80470     0.92362     1.36218
O     -1.47061    -1.26694     1.05360
H     -2.38544    -1.24036     0.66297
H      0.34697     0.80813     2.75155
H      0.47127    -0.97319     2.59545
H      0.97410     0.08017     1.28298
