 72
-2063.3228452348594
C     -3.52351    -0.58894     4.12543
C     -3.86320     0.67325     4.86709
O     -4.33472    -1.25390     3.52675
O     -2.22620    -0.89990     4.21440
H     -2.05937    -1.66632     3.64298
H     -4.43999     0.41106     5.75198
H     -2.96493     1.20695     5.15924
H     -4.48946     1.29401     4.23170
C     -0.02751     1.97231    -0.05340
C     -0.61597     2.34027    -1.37327
O     -0.07351     0.85724     0.43647
O      0.58488     2.99271     0.53620
H      1.00160     2.71424     1.37029
H     -1.57501     1.84860    -1.49398
H     -0.71082     3.41990    -1.45121
H      0.04556     1.97402    -2.15831
C      1.98400     1.08256     3.07596
C      0.79784     0.36608     3.61402
O      2.00009     2.30508     2.92073
O      2.98756     0.31965     2.73660
H      3.77426     0.85465     2.42639
H      1.05777    -0.63287     3.93803
H      0.33414     0.93259     4.41434
H      0.08732     0.29919     2.79362
C     -2.76069    -3.54353     1.77112
C     -4.05554    -4.09779     2.26356
O     -1.86772    -3.16339     2.52403
O     -2.65483    -3.49894     0.46868
H     -1.77211    -3.13949     0.18125
H     -4.49004    -4.76743     1.52894
H     -3.89393    -4.60395     3.20947
H     -4.72738    -3.25929     2.44576
C     -3.48721    -0.21230    -0.10967
C     -4.87922    -0.69932     0.14944
O     -3.08508     0.18283    -1.17609
O     -2.71046    -0.27025     0.98133
H     -1.80802    -0.02686     0.72128
H     -5.56270    -0.22229    -0.54943
H     -4.90664    -1.77545    -0.02229
H     -5.16628    -0.50523     1.17721
C      0.58516    -2.20987     0.44700
C      1.87344    -1.66777    -0.07260
O     -0.33136    -2.55495    -0.28361
O      0.51520    -2.26127     1.76144
H     -0.36219    -2.60522     2.05490
H      2.10303    -2.12274    -1.03147
H      1.72857    -0.59914    -0.21960
H      2.67046    -1.82422     0.64584
C      2.10558     0.91731    -6.87120
C      2.93226     1.56907    -7.94212
O      1.31279     0.02299    -7.12681
O      2.31602     1.39324    -5.66524
H      1.74280     0.92977    -4.99252
H      2.26594     1.99827    -8.68637
H      3.57097     2.33374    -7.51576
H      3.52700     0.80709    -8.43980
C     -0.09828    -0.61084    -4.14379
C     -1.00626    -1.14223    -3.08793
O      0.80079     0.18706    -3.89901
O     -0.34311    -1.07719    -5.34518
H      0.27585    -0.68216    -6.01417
H     -2.04091    -1.00267    -3.37696
H     -0.82806    -2.20511    -2.96036
H     -0.81776    -0.63761    -2.15480
C      5.11418     2.90120     1.74273
C      6.33815     3.59035     1.22100
O      5.07333     1.69130     1.91488
O      4.10385     3.70679     1.99558
H      3.32264     3.20743     2.33129
H      6.60858     3.15399     0.26300
H      6.15884     4.65400     1.11849
H      7.16321     3.40824     1.90500
