 32
-917.0176519426446
C      1.17622    -2.59330    -0.95332
C      1.83765    -3.91108    -1.24422
O      1.02684    -2.14302     0.15669
O      0.78102    -1.96575    -2.06719
H      0.34751    -1.13257    -1.82182
H      2.90004    -3.82296    -1.02411
H      1.42787    -4.66755    -0.57975
H      1.69766    -4.19265    -2.28212
C     -0.49839     1.62372    -1.50775
C      0.45761     2.25660    -2.45641
O     -0.71581     0.41477    -1.47628
O     -1.07883     2.46358    -0.68708
H     -1.68977     1.99101    -0.06028
H      0.59261     1.61918    -3.32250
H      0.10679     3.24433    -2.73930
H      1.40947     2.35835    -1.93740
C      2.16484     0.81216     1.14707
C      0.91418     0.45198     1.88272
O      2.22236     1.27214     0.03261
O      3.28216     0.56024     1.85928
H      4.02308     0.80883     1.29456
H      1.02436     0.57926     2.95530
H      0.09836     1.06173     1.51290
H      0.68694    -0.58820     1.66015
C     -2.85647     0.00157     1.08719
C     -3.79598    -0.62519     2.07589
O     -2.65489     1.20536     1.03530
O     -2.26391    -0.86996     0.29739
H     -1.66657    -0.41601    -0.34428
H     -4.21688     0.13888     2.71819
H     -4.58782    -1.14597     1.54241
H     -3.25635    -1.36163     2.66681
