 64
-1834.0663651286354
C     -6.05750    -1.95020    -2.32407
C     -7.34204    -1.17019    -2.26428
O     -5.57398    -2.41361    -3.32552
O     -5.49609    -2.06677    -1.10905
H     -4.68434    -2.59283    -1.19813
H     -8.03305    -1.64419    -1.56980
H     -7.13956    -0.16646    -1.89468
H     -7.77906    -1.11829    -3.25467
C      3.54059    -0.55155    -0.94598
C      2.69497    -1.13996    -2.03021
O      4.61993    -0.02668    -1.15948
O      3.00855    -0.64587     0.25802
H      3.51624    -0.09063     0.90304
H      2.19973    -2.03674    -1.67271
H      1.93083    -0.41043    -2.29494
H      3.31037    -1.34634    -2.90084
C     -2.42061    -4.06973    -2.16077
C     -3.11784    -4.73016    -3.30193
O     -3.02360    -3.56709    -1.21479
O     -1.11362    -4.08290    -2.23581
H     -0.69896    -3.62783    -1.45323
H     -3.94586    -4.10791    -3.62643
H     -2.41955    -4.91281    -4.11096
H     -3.52809    -5.67533    -2.94883
C      5.18823     1.76331     1.55849
C      5.61235     2.89125     2.44109
O      4.31497     0.96518     1.86931
O      5.82224     1.72406     0.40991
H      5.44418     1.00822    -0.16254
H      5.31352     3.82734     1.97583
H      5.13205     2.79151     3.40640
H      6.69493     2.89445     2.55214
C      0.58056     2.32344     2.57666
C      1.88823     2.90577     2.99911
O      0.29656     2.10062     1.39954
O     -0.23723     2.05220     3.56025
H     -1.09053     1.65995     3.23187
H      1.85559     3.18987     4.04518
H      2.67131     2.16478     2.83241
H      2.11768     3.75150     2.36058
C     -2.92805     0.99868     1.54644
C     -4.28712     0.48517     1.20695
O     -2.45312     0.93695     2.66754
O     -2.27927     1.52452     0.52194
H     -1.38995     1.82008     0.80687
H     -4.44106     0.52675     0.13555
H     -4.36588    -0.54023     1.55602
H     -5.03562     1.07880     1.72975
C     -0.57933    -2.11339     0.61855
C      0.15259    -1.21404     1.55723
O     -0.01432    -2.85288    -0.17120
O     -1.89631    -2.02762     0.70172
H     -2.32230    -2.61293     0.03028
H      0.13395    -0.20489     1.15165
H     -0.33783    -1.20412     2.52338
H      1.18244    -1.52868     1.64005
C      2.99911     3.25026    -0.79436
C      3.77929     3.42546    -2.05864
O      3.21409     3.84956     0.23183
O      2.04146     2.32060    -0.90839
H      1.53878     2.28763    -0.07792
H      3.15155     3.26795    -2.93077
H      4.22149     4.41655    -2.07622
H      4.57970     2.68756    -2.06935
