 48
-1375.5465442261193
C     -1.40644    -2.07839     1.75579
C     -0.24649    -2.08881     2.70372
O     -1.29177    -2.31383     0.56225
O     -2.55676    -1.78796     2.32952
H     -3.23338    -1.59714     1.63480
H      0.52695    -2.74837     2.32554
H      0.15737    -1.07885     2.75183
H     -0.57284    -2.38689     3.69625
C      2.08299    -1.11195    -1.04617
C      0.85629    -1.57314    -1.75889
O      2.83002    -0.24720    -1.50139
O      2.29104    -1.69508     0.10542
H      3.11598    -1.35994     0.55391
H      0.01331    -1.00116    -1.37964
H      0.95694    -1.38821    -2.82173
H      0.66918    -2.62158    -1.55398
C      0.24188     2.00749    -2.07584
C     -0.58473     3.13175    -2.61982
O      0.01297     1.42293    -1.03645
O      1.26436     1.69259    -2.86451
H      1.77376     0.96629    -2.45258
H     -0.96113     2.85538    -3.60363
H     -1.40519     3.34413    -1.94499
H      0.04160     4.01297    -2.74727
C     -2.49554     1.91989     1.37649
C     -3.26884     1.75588     2.65185
O     -2.77429     2.70514     0.50233
O     -1.45926     1.07205     1.29718
H     -1.00019     1.21515     0.44934
H     -2.61171     1.87626     3.51177
H     -4.06448     2.49243     2.68554
H     -3.69372     0.75484     2.69390
C      5.35454    -0.16700     0.78922
C      6.65532     0.14590     1.46493
O      4.49249    -0.85398     1.31584
O      5.22938     0.36033    -0.41140
H      4.35349     0.13793    -0.80293
H      7.28145     0.75442     0.82295
H      6.45056     0.66385     2.39847
H      7.15527    -0.78698     1.71287
C     -3.80631    -0.61702    -0.71312
C     -4.60497     0.31917    -1.56410
O     -4.19292    -1.01633     0.37295
O     -2.64741    -0.95746    -1.24665
H     -2.13427    -1.52475    -0.61831
H     -4.22090     1.32561    -1.40808
H     -4.48993     0.06204    -2.61302
H     -5.64671     0.28336    -1.26529
