 48
-1375.5455374422963
C      0.93192    -2.65286     2.61972
C     -0.05026    -3.13934     3.63276
O      1.03799    -1.49679     2.24761
O      1.70923    -3.61772     2.14218
H      2.32386    -3.23130     1.49699
H      0.14707    -4.17739     3.87412
H      0.01638    -2.51578     4.52213
H     -1.05127    -3.02511     3.22119
C      1.43973    -0.72609    -1.65207
C      0.30535    -0.48413    -2.59256
O      2.18226     0.15271    -1.24883
O      1.56111    -1.99133    -1.29307
H      2.33524    -2.10434    -0.70184
H     -0.60109    -0.88515    -2.14904
H      0.19820     0.57775    -2.77726
H      0.49096    -1.01944    -3.52296
C     -0.88868     2.80701    -0.25410
C      0.41226     2.73429     0.47617
O     -1.00501     2.56023    -1.44682
O     -1.90063     3.15692     0.50919
H     -2.73866     3.20686    -0.01786
H      0.62909     3.70318     0.92412
H      0.32072     2.00036     1.27175
H      1.19868     2.43968    -0.20786
C     -4.23346     2.93857    -2.11046
C     -5.54456     2.98669    -2.83949
O     -4.15719     3.14681    -0.90881
O     -3.20054     2.64926    -2.87048
H     -2.35932     2.62596    -2.33739
H     -5.93703     3.99942    -2.78780
H     -5.41434     2.68499    -3.87212
H     -6.25258     2.33626    -2.33256
C      4.48598    -1.36645     0.66988
C      5.75516    -1.57451     1.44244
O      3.71691    -2.29309     0.43084
O      4.28152    -0.13321     0.28762
H      3.45578    -0.03675    -0.26837
H      6.28580    -0.63739     1.55878
H      5.51042    -1.99755     2.41357
H      6.37007    -2.30007     0.91546
C     -1.88197    -0.90045     0.78557
C     -2.97464    -0.22700     0.00925
O     -2.02314    -1.91366     1.42640
O     -0.71927    -0.24623     0.68242
H     -0.05559    -0.69211     1.25660
H     -3.77530    -0.92939    -0.19276
H     -3.37205     0.60287     0.59006
H     -2.58943     0.18396    -0.91870
