 56
-1604.8017599726768
C     -3.08948     1.62270     0.66589
C     -4.21338     0.63154     0.73211
O     -3.16420     2.72644     0.19250
O     -1.95224     1.11838     1.18748
H     -1.24601     1.76986     1.06104
H     -4.08915    -0.09270    -0.06947
H     -4.20109     0.09002     1.67334
H     -5.16264     1.13751     0.59465
C      0.61032    -1.99369     2.06943
C     -0.79873    -1.96074     2.58488
O      1.03995    -2.87330     1.35918
O      1.33932    -0.94967     2.47085
H      2.26747    -1.09254     2.19479
H     -1.46817    -2.27348     1.78853
H     -0.88826    -2.67634     3.40348
H     -1.06302    -0.97023     2.93949
C      0.59902     2.84434    -0.69624
C     -0.51803     3.43385    -1.48504
O      0.49197     2.50535     0.47991
O      1.72250     2.71017    -1.36458
H      4.88837     2.65984     3.00552
H     -1.22251     2.64067    -1.72693
H     -1.05486     4.15531    -0.87735
H     -0.14372     3.88660    -2.39724
C     -1.21084    -0.82569    -1.28861
C      0.22668    -0.67656    -0.91647
O     -1.88849    -1.78455    -0.95766
O     -1.69855     0.17554    -1.99428
H     -2.60911    -0.04505    -2.32990
H      0.77222    -0.15512    -1.69564
H      0.28556    -0.10235     0.00403
H      0.64916    -1.65459    -0.71983
C     -4.63241    -1.58604    -2.73704
C     -5.93159    -1.89809    -3.42161
O     -4.08759    -0.49570    -2.84978
O     -4.14835    -2.56900    -2.01498
H     -3.27957    -2.30480    -1.60972
H     -5.78584    -1.83603    -4.49773
H     -6.27715    -2.88734    -3.14446
H     -6.66600    -1.14414    -3.14965
C      3.65742     1.94173     1.42410
C      4.92011     1.91314     2.22031
O      3.60437     1.61940     0.23973
O      2.60430     2.30265     2.11258
H      1.80335     2.33696     1.53718
H      2.42427     2.31416    -0.79385
H      4.99569     0.92830     2.67799
H      5.77140     2.05929     1.56483
C      3.86264    -2.03291     0.48762
C      3.98663    -3.50475     0.29425
O      3.83130    -1.47099     1.56902
O      3.75501    -1.35056    -0.64826
H      3.69338    -0.41344    -0.41120
H      4.31151    -3.72910    -0.71537
H      4.67295    -3.91280     1.03103
H      3.00343    -3.94098     0.47020
