 56
-1604.8007360269312
C     -0.17909    -3.05349    -2.80123
C      1.28171    -3.40651    -2.90626
O     -0.93746    -3.57030    -2.01527
O     -0.52755    -2.09347    -3.66396
H     -1.47595    -1.87824    -3.54006
H      1.52883    -3.67884    -3.93076
H      1.88559    -2.54191    -2.63723
H      1.50164    -4.22919    -2.23532
C     -0.92751     1.71366    -1.66092
C     -0.29377     1.13666    -2.87777
O     -2.00655     1.37578    -1.20785
O     -0.19432     2.66349    -1.08746
H     -0.58910     2.88076    -0.22903
H     -1.03864     0.64563    -3.49341
H      0.23052     1.90873    -3.43595
H      0.42650     0.38641    -2.55672
C     -1.93441     2.51385     2.19731
C     -3.18519     3.05620     1.58343
O     -0.82305     2.76596     1.73202
O     -2.11021     1.76003     3.24771
H      3.37400     0.63030     3.54659
H     -3.29707     2.61586     0.59493
H     -4.04461     2.81900     2.20080
H     -3.08497     4.13143     1.45660
C      0.67509    -1.20280     0.66402
C     -0.63951    -1.74786     1.11097
O      0.84935    -0.52116    -0.32025
O      1.66703    -1.54036     1.49015
H      2.49553    -1.16033     1.14843
H     -0.70104    -1.72321     2.19664
H     -1.44311    -1.17726     0.66448
H     -0.72080    -2.78102     0.77441
C     -3.43915    -1.76563    -1.95859
C     -4.12257    -3.07315    -1.71536
O     -3.07078    -1.38624    -3.05604
O     -3.24017    -1.06011    -0.85312
H     -2.81195    -0.20422    -1.06066
H     -4.62656    -3.06611    -0.75508
H     -4.82154    -3.27400    -2.52257
H     -3.36108    -3.85101    -1.72161
C      1.28204     0.94806     3.53902
C      2.51765     0.39550     4.16607
O      0.15814     0.65959     3.91658
O      1.51056     1.76450     2.52827
H      0.65923     2.14294     2.19521
H     -1.24003     1.36152     3.54155
H      2.63555     0.82338     5.16047
H      2.40614    -0.67970     4.26726
C      4.23055     0.66446    -0.06902
C      3.23419     1.75116    -0.29591
O      4.13241    -0.21889     0.75800
O      5.30329     0.74647    -0.87036
H      5.87894     0.00435    -0.64634
H      3.28766     2.46100     0.52645
H      3.41577     2.26014    -1.23657
H      2.23929     1.31515    -0.28557
