 32
-917.0158372989599
C      2.00655     0.62437     1.74725
C      0.61577     0.20661     1.38688
O      3.02304     0.09533     1.37357
O      2.03196     1.70718     2.55239
H      2.96305     1.89593     2.72096
H      0.29762     0.75526     0.50476
H      0.61176    -0.84891     1.15408
H     -0.08293     0.42929     2.18683
C     -2.23547     2.53134    -0.28945
C     -2.30723     4.02680    -0.20958
O     -1.61157     1.96250    -1.17664
O     -2.87573     1.90054     0.66512
H     -2.81443     0.91513     0.53122
H     -2.89173     4.33058     0.65060
H     -1.29782     4.42528    -0.14459
H     -2.74878     4.40957    -1.12626
C      2.14062    -1.98587    -0.94514
C      3.62412    -2.16358    -0.88213
O      1.33935    -2.55938    -0.24356
O      1.76847    -1.09794    -1.88136
H      0.80209    -1.02597    -1.84908
H      4.05940    -2.02534    -1.86715
H      4.02821    -1.41197    -0.20626
H      3.84887    -3.14812    -0.48538
C     -1.94122    -1.26468    -0.49356
C     -1.81700    -2.74672    -0.54156
O     -2.65576    -0.68148     0.30258
O     -1.19934    -0.61613    -1.38512
H     -1.36957     0.36611    -1.33278
H     -0.83500    -3.02627    -0.15710
H     -2.59633    -3.19969     0.06065
H     -1.86748    -3.09171    -1.57127
