 56
-1604.8138810310452
C      3.14705     2.29108    -1.17890
C      2.61994     3.67090    -1.43347
O      4.16804     2.04138    -0.58435
O      2.34679     1.34232    -1.68258
H      2.75236     0.48248    -1.49113
H      2.32266     3.77541    -2.47447
H      1.73794     3.83010    -0.81545
H      3.37808     4.40151    -1.17503
C     -2.14849    -0.28767    -1.48067
C     -0.74305     0.12605    -1.73756
O     -3.11089     0.40147    -1.79053
O     -2.26047    -1.44529    -0.86730
H     -3.21325    -1.64430    -0.66755
H     -0.69434     0.83662    -2.55335
H     -0.37287     0.61596    -0.84122
H     -0.11775    -0.73492    -1.92806
C      1.18065     1.09835     1.97721
C      2.49538     0.78123     2.61778
O      0.25019     0.30674     1.94311
O      1.12816     2.29845     1.44687
H     -3.69671     3.69454     0.76377
H      3.30224     1.04762     1.94160
H      2.60067     1.37197     3.52701
H      2.52411    -0.27328     2.86340
C      1.35406    -2.68176     0.77401
C      0.06089    -3.22560     1.28688
O      2.36729    -2.63988     1.45439
O      1.30494    -2.23343    -0.46427
H      2.18148    -1.86614    -0.73901
H     -0.32397    -2.52623     2.02600
H     -0.64789    -3.33030     0.47560
H      0.24286    -4.17896     1.77765
C     -5.75822    -1.30297    -0.81333
C     -7.17624    -1.73440    -0.57103
O     -4.80787    -1.92369    -0.35883
O     -5.63645    -0.21493    -1.54131
H     -4.67577     0.01434    -1.67053
H     -7.31047    -2.73971    -0.96309
H     -7.35413    -1.77616     0.50073
H     -7.86774    -1.04765    -1.04518
C     -2.34276     2.07466     1.02236
C     -3.73143     2.61831     0.89353
O     -1.34932     2.69242     0.67370
O     -2.29286     0.85943     1.52277
H     -1.35080     0.59353     1.66922
H      0.20976     2.48391     1.11514
H     -4.19045     2.16963     0.01450
H     -4.32493     2.35267     1.76301
C      4.67259    -1.17063    -0.43023
C      5.96503    -0.59392    -0.90239
O      3.65623    -1.17900    -1.12593
O      4.70056    -1.65842     0.78177
H      3.81925    -2.04775     1.03906
H      5.85645     0.48901    -0.92499
H      6.76631    -0.87494    -0.22883
H      6.16366    -0.93328    -1.91555
