 80
-2292.5901674870624
C      2.42361    -0.69320     3.87126
C      1.03210    -0.65616     4.40189
O      2.99274     0.31642     3.45409
O      2.98173    -1.87406     3.86032
H      3.87620    -1.83614     3.42754
H      0.89992     0.21206     5.03938
H      0.37940    -0.54237     3.53940
H      0.79093    -1.57423     4.92618
C     -2.61161     2.50411     1.15903
C     -3.79260     2.05507     0.36719
O     -2.21185     1.90870     2.16032
O     -2.03609     3.59070     0.71585
H     -1.29448     3.87882     1.32119
H     -3.65109     1.01346     0.08815
H     -4.67779     2.11823     0.99857
H     -3.91360     2.66666    -0.51845
C     -0.98627    -2.67329    -3.43277
C     -2.18250    -2.28807    -4.24359
O     -0.97516    -3.62871    -2.67777
O      0.04820    -1.87340    -3.61268
H      0.75896    -2.07437    -2.94458
H     -2.60630    -1.37599    -3.83144
H     -1.88173    -2.07666    -5.26390
H     -2.92898    -3.07270    -4.21080
C      0.79843     0.42646     0.56402
C      0.03907     0.73649    -0.67850
O      0.69728    -0.60094     1.19263
O      1.63342     1.40271     0.94429
H      2.13652     1.07149     1.70265
H     -0.06063     1.80815    -0.81969
H      0.58049     0.32781    -1.53033
H     -0.93234     0.26082    -0.64906
C      1.68288    -3.10440    -0.78081
C      2.64232    -3.10527     0.36554
O      1.82553    -2.39534    -1.76761
O      0.66281    -3.91840    -0.62103
H      0.05498    -3.85642    -1.40164
H      2.16677    -2.57862     1.18679
H      2.85055    -4.12249     0.68561
H      3.55575    -2.59445     0.08704
C     -2.35776    -1.43774     1.64364
C     -2.15634    -2.92479     1.69340
O     -2.50725    -0.79945     0.62838
O     -2.34527    -0.87847     2.85831
H     -2.41490     0.07981     2.73002
H     -2.41887    -3.36344     0.73791
H     -1.10413    -3.13012     1.89004
H     -2.74324    -3.36114     2.49931
C     -4.44219     0.98378    -3.79797
C     -5.91296     0.90739    -3.50734
O     -3.98846     0.85392    -4.92362
O     -3.69766     1.19449    -2.72944
H     -2.73785     1.24057    -2.98010
H     -6.46356     0.81274    -4.43507
H     -6.10909     0.04901    -2.86785
H     -6.22461     1.79775    -2.96710
C      0.47677     3.59848     3.12574
C      1.80599     3.92710     3.72553
O     -0.07174     4.29011     2.28556
O     -0.05367     2.48619     3.60103
H     -0.87262     2.25236     3.10274
H      2.44852     3.05152     3.68329
H      2.25742     4.75899     3.19616
H      1.66617     4.19233     4.77227
C      5.82515    -0.79377     2.10103
C      7.06561    -0.88210     1.26377
O      5.29025    -1.78417     2.57513
O      5.37042     0.43065     2.27327
H      4.51146     0.41405     2.75884
H      7.41941     0.10747     1.00013
H      7.82612    -1.43355     1.80987
H      6.83394    -1.45015     0.36552
C     -0.69472     1.07118    -4.54717
C      0.78031     1.02459    -4.78648
O     -1.19549     1.31096    -3.45931
O     -1.40928     0.80787    -5.62188
H     -2.37285     0.87784    -5.40957
H      1.02279     1.53907    -5.71226
H      1.29847     1.47265    -3.94693
H      1.07931    -0.01673    -4.87811
