 56
-1604.7998165961944
C      0.31947     0.01591    -2.13113
C      1.47919    -0.65584    -2.78638
O     -0.83570    -0.35153    -2.24012
O      0.65169     1.06214    -1.39023
H     -0.17588     1.48023    -1.05306
H      1.12579    -1.39020    -3.50042
H      2.11620     0.07993    -3.27071
H      2.07700    -1.13540    -2.01664
C     -0.18434    -1.93962     0.43708
C     -1.11258    -2.95801    -0.13393
O      1.02497    -1.95351     0.32853
O     -0.81496    -0.96554     1.09077
H     -0.15472    -0.32941     1.41001
H     -0.58207    -3.87939    -0.34587
H     -1.94414    -3.13913     0.54073
H     -1.49528    -2.57761    -1.07522
C      1.50161     1.94562     1.49673
C      2.80926     1.55945     0.90879
O      0.77951     1.17493     2.12903
O      1.16455     3.19921     1.29577
H     -2.05439     4.94308     4.78095
H      2.70882     1.48371    -0.16907
H      3.54750     2.32659     1.12817
H      3.11854     0.59686     1.29068
C     -2.47126     1.47158     0.15222
C     -3.36992     0.39368    -0.36117
O     -1.62011     2.04444    -0.49919
O     -2.68467     1.78114     1.42446
H     -2.04473     2.46577     1.67625
H     -3.17139     0.22268    -1.41250
H     -3.17851    -0.52231     0.19531
H     -4.41045     0.67409    -0.20349
C     -2.34643    -2.94441    -3.82187
C     -3.33289    -3.74023    -4.63998
O     -1.33400    -3.39642    -3.34567
O     -2.74031    -1.67143    -3.67974
H     -2.05470    -1.17445    -3.19277
H     -4.32505    -3.66584    -4.19865
H     -3.38822    -3.33073    -5.64736
H     -3.01614    -4.77663    -4.68144
C     -0.98107     3.29701     3.96720
C     -1.59036     4.02775     5.12702
O     -1.07232     3.68609     2.80495
O     -0.34066     2.20516     4.30726
H      0.06076     1.76956     3.51154
H      0.31253     3.40036     1.74266
H     -2.33084     3.39142     5.60577
H     -0.82353     4.24667     5.86489
C      4.31883    -1.98280    -0.47299
C      5.72530    -2.45125    -0.74188
O      3.92486    -0.86485    -0.70879
O      3.55678    -2.94816     0.04542
H      2.65053    -2.60801     0.18249
H      5.88291    -3.44219    -0.33114
H      5.88864    -2.46403    -1.81831
H      6.42647    -1.73941    -0.31234
