 40
-1146.2840058875422
C      0.62216    -1.51456    -1.32978
C     -0.73726    -1.78057    -1.88577
O      0.92972    -1.76488    -0.16705
O      1.46285    -0.99467    -2.18630
H      2.33105    -0.76437    -1.75740
H     -1.30120    -0.85191    -1.87599
H     -0.66631    -2.14000    -2.90871
H     -1.24928    -2.50064    -1.25920
C      3.88682    -0.11747     0.13031
C      4.81883     0.88218     0.73489
O      3.70522    -0.22776    -1.07165
O      3.26563    -0.86181     1.02566
H      2.52675    -1.33398     0.59596
H      5.56685     1.18481     0.01020
H      4.22998     1.75197     1.02348
H      5.27910     0.46989     1.62737
C      0.53141     1.81179    -1.00519
C      1.24748     2.53338    -2.10794
O     -0.59699     1.38315    -1.07968
O      1.29864     1.65628     0.07410
H      0.80396     1.15254     0.75692
H      0.54394     2.79496    -2.89062
H      1.74382     3.42324    -1.72822
H      2.01025     1.87307    -2.51930
C     -3.98631     0.07208     0.01872
C     -3.96201     1.13702    -1.03404
O     -4.39260     0.19104     1.14704
O     -3.46520    -1.09341    -0.43022
H     -3.41555    -1.67836     0.33569
H     -4.33861     0.74751    -1.97832
H     -4.56193     1.97764    -0.70223
H     -2.93457     1.46390    -1.18971
C     -0.79554    -0.49604     2.40114
C     -1.68198    -0.27566     3.58435
O      0.10902     0.24356     2.07568
O     -1.10694    -1.58938     1.70742
H     -0.43389    -1.69738     1.00554
H     -1.96471    -1.22585     4.02711
H     -1.17053     0.35112     4.30703
H     -2.58495     0.23098     3.25070
