 32
-917.0183242710882
C      4.21910     0.00171     1.41609
C      4.95421     0.84167     2.42486
O      4.73627    -0.85170     0.73945
O      2.91647     0.31451     1.35653
H      2.47812    -0.24669     0.69503
H      5.75072     1.38107     1.91744
H      4.27847     1.53411     2.91387
H      5.42052     0.18394     3.15462
C     -3.08285     2.80529     0.25541
C     -3.30760     4.25987     0.53356
O     -3.99178     1.99061     0.24233
O     -1.82241     2.49533     0.02169
H     -1.72900     1.53063    -0.14801
H     -2.36099     4.77233     0.65965
H     -3.85739     4.69138    -0.29971
H     -3.92624     4.36057     1.42061
C      1.45763    -2.07660    -1.33595
C      2.91010    -2.41737    -1.33583
O      0.61732    -2.59799    -2.01980
O      1.16118    -1.09303    -0.45221
H      0.21075    -0.88114    -0.51746
H      3.09994    -3.19104    -2.07279
H      3.50188    -1.53151    -1.55102
H      3.21372    -2.75095    -0.34691
C     -2.48231    -0.96551    -0.51675
C     -2.32362    -2.40445    -0.87741
O     -1.52829    -0.19453    -0.42293
O     -3.71962    -0.59300    -0.32051
H     -3.79026     0.37892    -0.10617
H     -1.49715    -2.82334    -0.31195
H     -3.24583    -2.94483    -0.69568
H     -2.04497    -2.47071    -1.92575
