 56
-1604.7991233206496
C      1.34953     2.16278    -2.14078
C      1.38933     1.24490    -3.32723
O      2.30704     2.71181    -1.65335
O      0.09889     2.31409    -1.67181
H      0.13302     2.91089    -0.90726
H      0.95666     1.75859    -4.18529
H      2.41980     0.98339    -3.54394
H      0.79519     0.35497    -3.13452
C      0.38934    -3.39122     0.51793
C     -0.33583    -4.13797    -0.56344
O      1.47600    -3.69351     0.94429
O     -0.31334    -2.33527     0.95044
H      0.19991    -1.86856     1.64049
H      0.16588    -5.07902    -0.76085
H     -1.36898    -4.31038    -0.27302
H     -0.35059    -3.54152    -1.47205
C      1.45938     4.47280     0.91697
C      2.27341     5.41408     0.09645
O      0.35887     4.05301     0.56454
O      2.00779     4.13394     2.05887
H     -2.46218     0.91459     3.42024
H      3.10023     5.79400     0.68500
H      2.64471     4.86906    -0.76867
H      1.63878     6.22201    -0.25799
C     -2.38872    -3.91390    -3.79604
C     -2.50486    -5.05019    -4.76942
O     -3.12711    -3.81713    -2.82680
O     -1.42971    -3.05780    -4.07087
H     -1.42119    -2.30497    -3.41918
H     -1.71685    -4.99526    -5.51172
H     -2.45543    -5.98923    -4.22425
H     -3.47998    -5.00281    -5.24852
C     -2.20330    -0.94510    -1.38901
C     -2.18275     0.28499    -0.54372
O     -1.41877    -1.10740    -2.31528
O     -3.11500    -1.83099    -1.06088
H     -3.12963    -2.57676    -1.71555
H     -3.02922     0.30243     0.13459
H     -1.25503     0.28258     0.02058
H     -2.17068     1.16366    -1.18002
C     -0.66557     1.98919     3.03816
C     -1.48307     1.05160     3.86457
O      0.46381     2.34133     3.36795
O     -1.24948     2.40810     1.94043
H     -0.66355     3.02303     1.43442
H      1.44994     3.48881     2.55337
H     -0.95878     0.10170     3.91957
H     -1.56578     1.45429     4.87083
C      2.19091    -0.64276     2.99651
C      3.20010    -1.71689     2.77333
O      0.99090    -0.78290     2.83666
O      2.72457     0.50735     3.39907
H      2.02321     1.17693     3.45743
H      3.15528    -2.03596     1.73601
H      4.18954    -1.36091     3.03581
H      2.92876    -2.58622     3.36757
