 72
-2063.3293134791525
C      4.40305     0.22395    -1.75374
C      5.24378     1.18988    -0.98286
O      4.63069    -0.97288    -1.80417
O      3.39016     0.79175    -2.37996
H      2.83154     0.09229    -2.80048
H      4.68539     1.51719    -0.10773
H      6.16659     0.71159    -0.67398
H      5.45092     2.06390    -1.59455
C      0.08401     3.80832    -1.15971
C      1.50158     3.86151    -1.62761
O     -0.23448     3.90929     0.02256
O     -0.78805     3.64648    -2.11965
H     -1.70841     3.54319    -1.75765
H      2.16035     3.65106    -0.79365
H      1.66212     3.14812    -2.42977
H      1.69898     4.86200    -2.01222
C     -3.41726     2.75583     0.03681
C     -4.69090     2.08241     0.42432
O     -3.16574     3.08582    -1.11085
O     -2.57765     2.94736     1.04129
H     -1.74566     3.36035     0.71933
H     -5.51183     2.78384     0.28083
H     -4.85480     1.23486    -0.23652
H     -4.63776     1.75763     1.45554
C     -1.81268    -1.16673    -1.19058
C     -1.11341     0.05197    -1.68848
O     -1.27645    -2.25760    -1.12061
O     -3.06772    -0.95221    -0.84017
H     -3.41283    -1.73667    -0.35790
H     -1.68088     0.50757    -2.49603
H     -1.06144     0.78129    -0.88413
H     -0.11199    -0.19725    -2.01713
C      1.93102    -1.19113     1.50415
C      1.57608    -2.62859     1.26847
O      2.11908    -0.69834     2.58988
O      2.00195    -0.49082     0.35971
H      2.23404     0.43593     0.57580
H      2.25929    -3.06986     0.54891
H      1.61110    -3.16908     2.20981
H      0.57182    -2.68840     0.85301
C     -3.25283    -4.23333     0.54763
C     -3.97081    -5.42878     1.09802
O     -3.66226    -3.08832     0.71850
O     -2.15703    -4.50470    -0.11724
H     -1.76617    -3.67451    -0.49352
H     -4.98971    -5.43458     0.71956
H     -3.45398    -6.34086     0.82514
H     -4.02759    -5.33212     2.17966
C      2.23997     2.49355     2.21854
C      3.01198     2.20025     3.46326
O      2.53053     2.06899     1.11383
O      1.18716     3.27406     2.42302
H      0.74233     3.46498     1.57866
H      4.07232     2.33134     3.25882
H      2.68509     2.84459     4.27153
H      2.85100     1.15370     3.71865
C     -2.27586    -0.30181     2.96081
C     -1.20155     0.58686     3.51834
O     -3.45943    -0.12929     3.09874
O     -1.76819    -1.34271     2.26129
H     -2.51201    -1.87146     1.93304
H     -0.37243    -0.00213     3.89993
H     -0.82317     1.21583     2.71483
H     -1.61512     1.22281     4.29517
C      2.02420    -2.38544    -3.17719
C      1.10048    -3.41118    -3.76233
O      1.97604    -1.20260    -3.47415
O      2.85682    -2.86975    -2.27832
H      3.53594    -2.18280    -2.04757
H      0.61147    -3.00205    -4.63871
H      1.64891    -4.31662    -4.00351
H      0.35067    -3.65696    -3.01414
