 80
-2292.590406137017
C      3.49760    -1.21905     4.47349
C      4.50834    -1.25097     5.58318
O      3.20663    -2.22097     3.83811
O      2.98107    -0.02985     4.25180
H      2.30394    -0.06435     3.52697
H      4.59478    -0.27526     6.04633
H      4.20894    -1.99894     6.31256
H      5.46550    -1.56260     5.17153
C     -3.66735    -3.51800     3.27329
C     -4.12328    -4.94025     3.14778
O     -2.97655    -3.11313     4.19279
O     -4.09289    -2.74539     2.28874
H     -3.75076    -1.82720     2.39760
H     -3.89858    -5.30541     2.14884
H     -3.63288    -5.54905     3.89725
H     -5.20222    -4.98255     3.28229
C      0.30384    -0.67426    -3.33051
C      1.55724    -0.07590    -3.87674
O     -0.68998    -0.00318    -3.09119
O      0.36204    -1.96899    -3.12496
H     -0.50184    -2.30244    -2.77997
H      1.95983    -0.68714    -4.67805
H      1.32853     0.92127    -4.22798
H      2.28926    -0.01882    -3.07398
C      2.07723     3.70894    -5.28546
C      2.31305     4.02713    -6.73204
O      0.97632     3.76891    -4.75768
O      3.16944     3.34989    -4.64381
H      2.97294     3.15868    -3.69703
H      1.37928     4.30200    -7.20726
H      3.03014     4.84085    -6.81127
H      2.74500     3.15828    -7.22340
C     -3.01233    -2.04352    -2.05438
C     -4.27066    -2.48100    -1.36637
O     -2.00154    -2.72357    -2.08846
O     -3.10977    -0.85436    -2.61429
H     -2.20903    -0.53784    -2.88881
H     -4.73400    -1.62960    -0.88198
H     -4.95667    -2.88201    -2.11174
H     -4.02957    -3.25151    -0.64268
C     -2.85408     1.77657    -0.32546
C     -3.12362     2.51993    -1.59357
O     -1.80765     1.79679     0.28191
O     -3.90787     1.06055     0.08694
H     -3.66564     0.62556     0.91802
H     -4.13127     2.92987    -1.58033
H     -2.38806     3.30513    -1.72153
H     -3.04536     1.82625    -2.42914
C      1.48090     2.88299    -1.57685
C      1.21472     2.53297    -0.15394
O      2.58627     2.74596    -2.10163
O      0.44540     3.34472    -2.22519
H      0.64807     3.51860    -3.18669
H      0.34090     3.06285     0.20176
H      1.00772     1.46693    -0.08053
H      2.08965     2.75007     0.44747
C     -2.40198     0.13108     3.48404
C     -1.81717     1.50210     3.54766
O     -3.14043    -0.25089     2.57943
O     -2.04689    -0.63946     4.47969
H     -2.40939    -1.56090     4.37647
H     -0.73370     1.41137     3.57831
H     -2.11952     2.07538     2.68211
H     -2.14397     1.98601     4.46770
C      0.90899    -1.16123     1.64556
C     -0.03507    -1.08762     0.49646
O      1.22605    -0.17794     2.30452
O      1.39124    -2.35776     1.88091
H      2.03164    -2.33419     2.63489
H      0.55872    -0.91268    -0.39875
H     -0.55850    -2.03090     0.38847
H     -0.72014    -0.25657     0.63029
C      3.74570    -0.05449    -0.36081
C      4.52159    -0.92134     0.58403
O      2.74155    -0.41858    -0.93243
O      4.25545     1.17004    -0.47458
H      3.65948     1.71124    -1.02853
H      4.17689    -0.71967     1.59564
H      4.32878    -1.96526     0.36789
H      5.58507    -0.70604     0.54028
