 56
-1604.8095123110106
C      1.48483     0.10958     1.36075
C      0.74667    -0.31481     2.59166
O      1.01372     0.89123     0.54791
O      2.67072    -0.44111     1.22889
H      3.10621    -0.11508     0.39600
H      1.44403    -0.62634     3.36481
H      0.12747     0.50847     2.93008
H      0.10783    -1.15881     2.33265
C     -0.87757    -4.02320    -1.19783
C     -0.54070    -5.42930    -1.56426
O     -0.46369    -3.05653    -1.84169
O     -1.63134    -3.89561    -0.14650
H     -1.77269    -2.93422     0.08760
H     -0.46433    -5.52234    -2.64297
H      0.42996    -5.64970    -1.12344
H     -1.28280    -6.10884    -1.15990
C     -0.20455     3.92918     1.29784
C      1.26381     4.21007     1.28759
O     -0.94266     4.21062     0.36720
O     -0.62233     3.33755     2.39839
H     -5.82123     4.15999     2.40139
H      1.53183     4.71849     0.36847
H      1.52994     4.81668     2.15087
H      1.79370     3.26608     1.36412
C      2.96729     0.39528    -2.06033
C      3.46173     0.10474    -3.44545
O      3.68996     0.35679    -1.07476
O      1.68475     0.67714    -2.01061
H      1.40591     0.81351    -1.07532
H      3.20872    -0.92770    -3.68454
H      2.96927     0.75222    -4.16522
H      4.53951     0.22679    -3.48914
C     -1.99865    -0.47316    -0.41066
C     -2.60985     0.85834    -0.12146
O     -1.97918    -1.37115     0.41963
O     -1.48324    -0.59727    -1.60947
H     -1.06747    -1.48526    -1.71100
H     -1.82738     1.53066     0.22137
H     -3.05958     1.28197    -1.01064
H     -3.34076     0.75443     0.67061
C     -3.99646     3.60056     1.48781
C     -5.48862     3.50521     1.59927
O     -3.25984     3.23972     2.39386
O     -3.56583     4.09472     0.35078
H     -2.57124     4.16823     0.35324
H     -1.61513     3.28623     2.40921
H     -5.96044     3.78792     0.66509
H     -5.75976     2.48981     1.87590
C      2.61753    -3.37959    -0.41853
C      4.09822    -3.31759    -0.20546
O      1.85399    -4.04495     0.23480
O      2.22575    -2.60607    -1.44130
H      1.26017    -2.68671    -1.54398
H      4.62406    -3.58361    -1.12097
H      4.38337    -2.30067     0.06084
H      4.38063    -3.99512     0.59389
