 64
-1834.0588120450063
C      0.31737     0.85429    -1.64666
C      1.75202     0.70025    -1.24290
O     -0.25384     1.93025    -1.69994
O     -0.29303    -0.28293    -1.92875
H     -1.21629    -0.11498    -2.22561
H      1.81839     0.57702    -0.16505
H      2.18385    -0.17354    -1.71859
H      2.30122     1.59926    -1.50373
C      4.16372     2.41586     1.55847
C      4.14047     3.75484     2.21007
O      3.49359     1.46310     1.96555
O      4.94456     2.32703     0.51558
H      4.99530     1.38968     0.18334
H      4.92877     4.37767     1.80363
H      3.16592     4.20217     2.02067
H      4.24531     3.63490     3.28508
C      0.90155    -2.85184    -0.42233
C     -0.50780    -3.23810    -0.73571
O      1.86043    -3.05501    -1.12679
O      1.00749    -2.22811     0.76852
H      1.93309    -1.97484     0.91212
H     -0.54956    -3.74108    -1.69373
H     -0.91625    -3.86497     0.04934
H     -1.11952    -2.34418    -0.77972
C      4.56025    -1.13541     0.17166
C      4.87255    -2.53126    -0.23796
O      5.09837    -0.15682    -0.31139
O      3.61887    -1.02537     1.11206
H      3.57816    -0.09363     1.45132
H      5.79256    -2.54971    -0.81212
H      4.94344    -3.17029     0.63872
H      4.04821    -2.90478    -0.84747
C     -3.43111     1.26997    -2.41512
C     -4.88461     1.46452    -2.70759
O     -2.83033     0.24059    -2.71485
O     -2.87065     2.26739    -1.78582
H     -1.88607     2.15063    -1.71287
H     -5.13582     2.51993    -2.71153
H     -5.12924     0.99589    -3.65570
H     -5.44312     0.95935    -1.92074
C     -2.17113    -1.15667     1.70710
C     -1.19852    -0.85773     2.80673
O     -2.59428    -2.25983     1.45439
O     -2.53092    -0.06760     1.00371
H     -3.25838    -0.31818     0.39963
H     -1.40309    -1.51311     3.64973
H     -0.18886    -1.05327     2.45600
H     -1.25898     0.18075     3.10320
C      0.24505     2.91220     1.73017
C     -1.23261     3.10347     1.60247
O      1.06428     3.76441     1.49264
O      0.58330     1.66845     2.11774
H      1.55013     1.62942     2.17321
H     -1.51888     4.00757     2.13671
H     -1.46514     3.25003     0.55007
H     -1.77653     2.24581     1.97619
C     -4.44367    -2.18443    -0.97453
C     -5.00774    -3.42242    -0.36258
O     -4.59100    -1.06291    -0.52311
O     -3.72438    -2.41861    -2.06746
H     -3.39197    -1.56727    -2.39682
H     -4.38174    -3.67825     0.49083
H     -6.01126    -3.22554     0.00337
H     -4.99840    -4.23510    -1.07986
