 48
-1375.5424097093733
C     -1.64441     0.41705     0.05422
C     -2.85509     1.27054    -0.17750
O     -0.91500     0.02016    -0.82219
O     -1.44298     0.15272     1.35239
H     -0.62122    -0.35604     1.43008
H     -2.53362     2.30313    -0.30422
H     -3.34658     0.95708    -1.09475
H     -3.54025     1.20934     0.66263
C      0.94153    -2.43353    -1.58224
C      0.04456    -2.89712    -2.67706
O      0.76594    -2.72810    -0.40028
O      1.93090    -1.67180    -1.97748
H      2.44013    -1.32744    -1.19752
H     -0.15908    -3.95632    -2.55475
H     -0.90896    -2.38060    -2.57270
H      0.48322    -2.68403    -3.64606
C      0.87586     2.55814    -1.12861
C      1.41579     1.74887    -2.25900
O      1.32591     2.50978     0.00823
O     -0.13762     3.32424    -1.46386
H     -0.46379     3.82125    -0.67198
H      2.33225     1.26366    -1.94556
H      0.67835     0.99471    -2.51707
H      1.58818     2.38354    -3.12599
C     -0.37100     4.70846     1.76011
C     -0.82393     5.63460     2.85090
O     -1.01946     4.54136     0.73709
O      0.76839     4.09790     2.00688
H      0.99741     3.49311     1.25144
H     -0.12039     5.62318     3.67507
H     -0.91637     6.63914     2.44512
H     -1.81080     5.32675     3.18751
C      2.52202    -0.34058     1.13997
C      3.00230     0.64094     2.15717
O      3.12836    -0.60202     0.11696
O      1.35829    -0.91094     1.43323
H      1.18634    -1.65037     0.79582
H      2.83812     0.25795     3.16068
H      4.05511     0.84430     1.99471
H      2.43160     1.56089     2.04065
C     -2.15251    -4.93272    -0.32044
C     -3.01491    -6.02844     0.24438
O     -2.46948    -4.19994    -1.22411
O     -0.96644    -4.87383     0.30310
H     -0.45227    -4.13065    -0.06265
H     -2.51087    -6.98680     0.13309
H     -3.17267    -5.86169     1.30819
H     -3.96531    -6.04407    -0.27642
