 56
-1604.800115919243
C      1.08915     2.85735    -2.78314
C      0.73604     1.96870    -3.93730
O      2.09844     3.50709    -2.68508
O      0.13634     2.83674    -1.83052
H      0.42928     3.41159    -1.11030
H      1.33471     2.22873    -4.80276
H      0.94742     0.93456    -3.67488
H     -0.32222     2.03703    -4.16696
C     -0.85791    -3.85565     0.19251
C     -0.72862    -4.06894    -1.28907
O     -0.35224    -4.55379     1.03325
O     -1.60297    -2.77104     0.46880
H     -1.62697    -2.63593     1.43295
H      0.09297    -3.46210    -1.66202
H     -0.50693    -5.11223    -1.49210
H     -1.63475    -3.76269    -1.80140
C      1.85494     3.43498     1.33636
C      3.09489     4.00468     0.73656
O      0.73268     3.68712     0.90717
O      2.05923     2.64939     2.36973
H     -2.52037     1.22662     4.52384
H      3.05191     5.08863     0.81976
H      3.97033     3.62290     1.24948
H      3.12479     3.75902    -0.32149
C      0.59021    -2.06446    -4.50444
C      1.00108    -2.76143    -5.76882
O     -0.50766    -1.54677    -4.36269
O      1.51972    -2.07432    -3.57486
H      1.22175    -1.58243    -2.76326
H      1.88965    -2.28282    -6.17398
H      1.25649    -3.79450    -5.54407
H      0.19146    -2.72175    -6.48694
C     -0.47604    -0.32297    -1.28873
C     -0.84953     0.36357    -0.02085
O      0.65728    -0.72725    -1.50181
O     -1.45481    -0.44649    -2.15274
H     -1.13553    -0.88376    -2.98392
H     -1.48482     1.21668    -0.22739
H     -1.39713    -0.32619     0.61425
H      0.06506     0.67298     0.47073
C     -1.38140     1.96941     2.90910
C     -2.63950     1.37613     3.45387
O     -0.27102     1.53890     3.20758
O     -1.55927     2.98572     2.10432
H     -0.69970     3.30244     1.72984
H      1.21253     2.27700     2.70345
H     -3.49355     2.01281     3.24645
H     -2.78280     0.39351     3.00796
C     -0.74424    -1.96625     3.99483
C     -0.37738    -3.31154     4.52635
O     -1.54753    -1.78145     3.09994
O     -0.12073    -0.96043     4.60142
H     -0.32365    -0.12992     4.13221
H      0.32046    -3.21725     5.35038
H     -1.28429    -3.81514     4.85311
H      0.05167    -3.90426     3.72277
