 80
-2292.590939516357
C      4.76586    -0.51418    -0.78733
C      5.97396    -1.38580    -0.79122
O      3.78954    -0.71278    -1.49107
O      4.83773     0.48370     0.07168
H      3.98518     0.97610     0.09239
H      6.85106    -0.79793    -1.05423
H      6.11468    -1.78322     0.21044
H      5.82978    -2.19631    -1.49501
C     -3.06841     2.77689    -0.63270
C     -3.70717     1.50016    -1.07386
O     -2.95856     3.08244     0.55310
O     -2.65625     3.55138    -1.60031
H     -2.15111     4.32884    -1.24334
H     -4.72103     1.46867    -0.68090
H     -3.72267     1.42101    -2.15481
H     -3.16562     0.65451    -0.66235
C     -4.99907    -4.03580    -3.31055
C     -6.22842    -4.75691    -3.78144
O     -5.02768    -2.85565    -2.98702
O     -3.91450    -4.77511    -3.28023
H     -3.12990    -4.24734    -2.96744
H     -6.98835    -4.70192    -3.00583
H     -6.62155    -4.24831    -4.65840
H     -5.99651    -5.78982    -4.01378
C     -0.76688     5.53581     0.58334
C      0.39007     6.37015     1.03630
O     -1.08901     5.42613    -0.58731
O     -1.41584     4.94706     1.56871
H     -2.07467     4.30935     1.20656
H      0.02136     7.19582     1.64290
H      1.05407     5.76945     1.65206
H      0.92398     6.75652     0.17513
C     -1.89388    -2.20329    -2.05874
C     -0.68650    -1.50848    -1.52624
O     -1.85465    -3.35739    -2.46377
O     -2.98933    -1.47690    -2.06066
H     -3.75892    -1.99828    -2.41507
H      0.15365    -1.72248    -2.17550
H     -0.84328    -0.44520    -1.44349
H     -0.46109    -1.89824    -0.53858
C     -1.40523     0.32979     2.01567
C     -0.99844    -0.78054     2.92543
O     -1.13958     0.39730     0.83275
O     -2.10053     1.28605     2.63956
H     -2.37401     1.94602     1.98304
H     -0.12065    -0.45501     3.48410
H     -1.80072    -1.01608     3.62068
H     -0.71221    -1.64917     2.34520
C      1.88467    -4.43590    -0.50165
C      1.39146    -5.31404    -1.61098
O      1.15688    -4.06187     0.40599
O      3.15597    -4.09860    -0.59397
H      3.40640    -3.51822     0.16143
H      1.14943    -6.29154    -1.19919
H      0.47634    -4.89121    -2.01702
H      2.14861    -5.41062    -2.38083
C      0.94134     2.66516     3.24257
C      0.22597     3.54873     4.21876
O      1.19677     1.50480     3.44856
O      1.25615     3.29887     2.10135
H      1.71495     2.66960     1.50411
H      0.83623     3.65809     5.11410
H      0.01808     4.51784     3.78216
H     -0.70446     3.05995     4.49685
C      1.58045     1.58392    -0.68179
C      0.40286     2.50485    -0.72192
O      2.42015     1.64224     0.22013
O      1.64577     0.72649    -1.65595
H      2.47344     0.16753    -1.59435
H     -0.23874     2.22200    -1.54741
H     -0.12049     2.41945     0.21904
H      0.75072     3.52847    -0.83344
C      2.98007    -1.86029     2.13402
C      3.35338    -0.70368     3.00038
O      3.79421    -2.48740     1.47261
O      1.69417    -2.14702     2.14347
H      1.49485    -2.90356     1.53428
H      3.11202     0.22017     2.48021
H      2.77172    -0.70734     3.91558
H      4.41698    -0.74019     3.20632
