 72
-2063.3243244676833
C     -3.38467    -0.53566     4.23467
C     -3.53455     0.68568     5.09586
O     -4.27464    -0.99398     3.55876
O     -2.15939    -1.06520     4.30473
H     -2.10712    -1.79311     3.66514
H     -4.26275     0.47606     5.87674
H     -2.58611     0.96971     5.53925
H     -3.92692     1.49767     4.48783
C      0.20200     1.98790    -0.39737
C     -0.31432     2.46200    -1.71117
O     -0.00943     0.88744     0.07832
O      0.97094     2.88294     0.21755
H      1.27795     2.53264     1.07037
H     -1.33185     2.10992    -1.84392
H     -0.25644     3.54492    -1.76736
H      0.29865     2.01736    -2.49432
C      2.05489     0.76753     2.96306
C      1.00037    -0.01334     3.66685
O      1.97299     1.98482     2.79981
O      3.05166     0.06337     2.49165
H      3.74451     0.64876     2.06921
H      1.38406    -0.95600     4.03841
H      0.55760     0.57556     4.46228
H      0.22671    -0.23020     2.93553
C     -3.04066    -3.30099     1.56666
C     -4.37114    -3.73910     2.08230
O     -2.07458    -3.10551     2.30044
O     -2.98933    -3.13641     0.26958
H     -2.07297    -2.87939    -0.02333
H     -4.22954    -4.37903     2.94730
H     -4.90695    -2.84818     2.41107
H     -4.93376    -4.24625     1.30583
C     -3.31487     0.30495     0.02543
C     -4.74066    -0.01049     0.36359
O     -2.95165     0.74803    -1.03843
O     -2.47022     0.03473     1.02654
H     -1.57098     0.25172     0.71555
H     -5.39936     0.61022    -0.23993
H     -4.93405    -1.05628     0.12304
H     -4.92533     0.13801     1.42183
C      0.39321    -2.24333     0.22416
C      1.70746    -1.83305    -0.34518
O     -0.57361    -2.50371    -0.47503
O      0.35883    -2.28983     1.54108
H     -0.53011    -2.58411     1.85017
H      1.93949    -2.46124    -1.20071
H      1.59776    -0.81016    -0.70283
H      2.48387    -1.88079     0.40741
C      2.49591     0.69972    -6.09376
C      3.59142     1.29918    -6.92901
O      1.59265     0.04546    -6.59082
O      2.60625     0.94717    -4.80580
H      1.86490     0.52017    -4.30007
H      3.14687     1.96237    -7.66682
H      4.29249     1.83988    -6.30398
H      4.09663     0.50287    -7.46973
C     -0.37900    -0.68510    -3.97073
C     -1.52879    -1.11326    -3.12599
O      0.62963    -0.17678    -3.49358
O     -0.53783    -0.89551    -5.25673
H      0.24995    -0.56823    -5.76486
H     -1.34731    -0.82943    -2.10297
H     -2.44541    -0.65455    -3.48211
H     -1.64006    -2.19211    -3.18396
C      4.85258     2.83144     1.32549
C      5.94138     3.60967     0.65456
O      4.81948     1.60929     1.32397
O      3.94823     3.58113     1.92230
H      3.24129     3.02149     2.31774
H      6.24333     3.10082    -0.25501
H      5.60663     4.61989     0.44753
H      6.79912     3.64566     1.32314
