 48
-1375.5435396401006
C     -0.59115    -3.47199     1.55802
C     -1.56745    -3.89772     2.59815
O     -0.87733    -3.22514     0.39702
O      0.65921    -3.39716     1.98812
H      1.22348    -3.03065     1.28159
H     -2.34580    -3.14153     2.67492
H     -2.04046    -4.82253     2.27232
H     -1.06618    -4.04150     3.54799
C      2.62888    -2.34618    -0.85831
C      1.90828    -3.52669    -1.42695
O      2.57504    -2.06794     0.33746
O      3.31368    -1.65117    -1.72338
H      3.77535    -0.87871    -1.29231
H      2.10256    -4.38890    -0.79362
H      0.83687    -3.34066    -1.39093
H      2.22264    -3.71879    -2.44810
C     -0.39568     1.48598    -1.06175
C      0.61481     0.38811    -1.08918
O     -0.49499     2.25307    -0.11583
O     -1.15217     1.55506    -2.13054
H     -1.80504     2.29607    -2.04607
H      1.19904     0.43876    -2.00116
H      1.25104     0.49485    -0.22104
H      0.11119    -0.57264    -1.06481
C     -3.00367     4.28042    -0.90451
C     -4.03818     5.36647    -0.84861
O     -2.94894     3.48888    -1.83391
O     -2.18920     4.25669     0.12697
H     -1.52315     3.52228     0.04092
H     -5.02426     4.91727    -0.93559
H     -3.95105     5.92355     0.07690
H     -3.90367     6.02480    -1.70345
C      4.43224     0.76545     0.53542
C      5.04769     2.02071     1.07128
O      4.38598     0.49673    -0.65506
O      3.94440    -0.02311     1.47243
H      3.51471    -0.81263     1.07376
H      5.39657     2.63619     0.25150
H      4.31323     2.56179     1.66343
H      5.87531     1.76464     1.72910
C     -3.10471    -0.67963     0.65532
C     -3.73846     0.65217     0.36588
O     -3.35704    -1.35344     1.62466
O     -2.21707    -1.01847    -0.28388
H     -1.79838    -1.87483    -0.04681
H     -3.04946     1.44343     0.65214
H     -3.94002     0.75557    -0.69579
H     -4.65087     0.75525     0.94206
