 64
-1834.0586713319367
C     -0.75116     0.99646    -0.11904
C      0.70973     1.21640     0.08421
O     -1.51918     0.71214     0.77691
O     -1.13283     1.12558    -1.38530
H     -2.10519     1.00479    -1.47695
H      1.10249     1.90470    -0.65228
H      0.86936     1.60388     1.08171
H      1.22076     0.26085    -0.00478
C      3.86512     1.71636     1.81306
C      4.08013     2.87619     2.72781
O      3.50462     0.61144     2.20587
O      4.09241     1.98488     0.54568
H      4.01828     1.18006    -0.01742
H      3.10476     3.31707     2.93368
H      4.49457     2.52507     3.66752
H      4.72477     3.60991     2.25677
C      1.46452     0.07859    -3.19615
C      0.38139     0.50639    -4.13377
O      1.53358    -1.01811    -2.67264
O      2.38003     1.02381    -2.99951
H      3.05386     0.67653    -2.38911
H     -0.31566    -0.31061    -4.26708
H     -0.13540     1.36478    -3.71442
H      0.82250     0.80357    -5.08433
C      3.97234    -1.38184    -0.55234
C      4.09035    -2.58477    -1.42790
O      3.98172    -0.23583    -0.99578
O      3.86801    -1.64631     0.72686
H      3.75336    -0.82709     1.26114
H      5.04748    -2.54765    -1.94392
H      4.01298    -3.48871    -0.83541
H      3.30504    -2.54520    -2.17699
C     -2.88551    -1.75455     3.02389
C     -3.46306    -2.22108     4.33685
O     -2.51719    -2.48802     2.14167
O     -2.82441    -0.41663     2.96459
H     -2.41789    -0.13020     2.12734
H     -3.50115    -3.30440     4.34958
H     -2.83878    -1.86092     5.15354
H     -4.46030    -1.80629     4.47443
C     -4.50117     0.55690    -2.85382
C     -5.77152     1.28875    -3.17049
O     -3.77125     0.88974    -1.93486
O     -4.26573    -0.46920    -3.64361
H     -3.42226    -0.92450    -3.39425
H     -6.30215     0.80230    -3.98109
H     -6.38955     1.32520    -2.27657
H     -5.52985     2.31459    -3.43981
C      0.50379     1.70677     3.80262
C     -0.82281     1.80293     4.48108
O      0.96762     2.56675     3.08807
O      1.13769     0.55356     4.04842
H      1.97446     0.55365     3.55833
H     -0.91960     1.03120     5.23758
H     -0.93032     2.79243     4.91846
H     -1.60481     1.67333     3.73625
C     -1.81636    -2.01758    -1.85572
C     -2.93899    -2.30439    -0.92121
O     -1.96060    -1.68465    -3.02229
O     -0.63026    -2.13723    -1.28762
H      0.07635    -1.87424    -1.90523
H     -3.04477    -1.45817    -0.24675
H     -3.85808    -2.44822    -1.47732
H     -2.71505    -3.17167    -0.31020
