 40
-1146.2804585878612
C      0.51242    -1.66579    -2.48757
C     -0.11136    -2.99103    -2.77577
O     -0.05163    -0.72790    -1.96030
O      1.78324    -1.59997    -2.87975
H      2.14548    -0.73716    -2.61884
H     -0.40960    -3.45184    -1.83688
H     -1.01876    -2.83266    -3.35472
H      0.58454    -3.62339    -3.31450
C      1.30193    -0.38658     0.99910
C      0.85500    -1.32844     2.05918
O      0.68564     0.60901     0.65217
O      2.44948    -0.74482     0.44601
H      2.67835    -0.14138    -0.28884
H      1.71730    -1.72297     2.58926
H      0.16260    -0.82399     2.72195
H      0.33967    -2.14810     1.56136
C      2.51487     2.03624    -1.82087
C      3.09449     3.06513    -2.74311
O      2.89964     0.87190    -1.81515
O      1.56882     2.48496    -1.03420
H      1.22604     1.76972    -0.44461
H      4.17768     3.03317    -2.66992
H      2.82718     2.80228    -3.76448
H      2.71675     4.05113    -2.50135
C     -2.13822    -1.72083     0.41925
C     -3.34878    -1.87489     1.28290
O     -1.39847    -2.62305     0.10787
O     -1.93520    -0.44869     0.04795
H     -1.18887    -0.42446    -0.58783
H     -3.15091    -1.40143     2.24365
H     -4.20352    -1.37597     0.82996
H     -3.55930    -2.92946     1.42653
C     -2.10112     1.56107     3.03063
C     -2.65126     2.67698     3.87749
O     -1.84827     0.45723     3.45526
O     -1.92038     1.92705     1.75909
H     -1.55476     1.17955     1.25536
H     -1.88700     2.98965     4.58653
H     -2.94884     3.51861     3.26146
H     -3.49567     2.30298     4.45056
