 72
-2063.3286677572023
C      2.94176     1.11159     0.42367
C      2.68217     2.55600     0.69636
O      2.16194     0.22800     0.75753
O      4.06107     0.87077    -0.21480
H      4.14343    -0.10749    -0.37769
H      2.38126     3.02821    -0.23751
H      1.87053     2.64472     1.40689
H      3.58305     3.04483     1.05918
C     -3.89368     3.47469     0.59202
C     -5.01831     3.20366     1.53489
O     -2.89973     4.11800     0.87725
O     -4.06180     2.92657    -0.60562
H     -3.30295     3.15906    -1.16554
H     -5.25713     4.11008     2.08424
H     -5.88149     2.83095     0.99532
H     -4.67880     2.45685     2.25068
C      0.00971     1.10609    -2.83180
C      0.51935    -0.21046    -3.32424
O      0.73261     1.95539    -2.33462
O     -1.29424     1.25938    -2.95877
H     -1.55615     2.16701    -2.67981
H     -0.11259    -0.58291    -4.12375
H      1.54551    -0.10114    -3.65593
H      0.49373    -0.91787    -2.50035
C     -0.19495    -4.91843     0.31741
C      0.50828    -6.22162     0.50726
O     -0.71233    -4.30927     1.25158
O     -0.20752    -4.46503    -0.90729
H     -0.73781    -3.62054    -0.98347
H      1.41165    -6.03283     1.08509
H     -0.12556    -6.89220     1.08162
H      0.76406    -6.65161    -0.45439
C     -1.07653     4.62290    -1.76788
C     -1.48355     6.03587    -1.51269
O     -1.85533     3.77966    -2.20977
O      0.15860     4.34365    -1.45527
H      0.39385     3.42152    -1.74550
H     -2.03171     6.05248    -0.57191
H     -0.60958     6.67328    -1.43669
H     -2.14899     6.37333    -2.30164
C     -2.15377    -1.65290    -0.18286
C     -2.81142    -0.33131    -0.39880
O     -1.62218    -2.28706    -1.08425
O     -2.18671    -2.07432     1.06315
H     -1.69115    -2.91971     1.16142
H     -3.62667    -0.20282     0.30225
H     -2.07837     0.44774    -0.20616
H     -3.14946    -0.24434    -1.42379
C      3.19671    -2.36358    -0.95394
C      3.27023    -3.68923    -1.63472
O      4.17962    -1.74096    -0.59069
O      1.96014    -1.92617    -0.77251
H      1.94434    -1.16122    -0.15382
H      3.50855    -4.43376    -0.87684
H      2.32069    -3.93067    -2.09458
H      4.07563    -3.67827    -2.36658
C     -1.26391     1.53595     2.18714
C     -0.26545     0.57980     2.76412
O     -2.46101     1.38989     2.25046
O     -0.69227     2.57998     1.56340
H     -1.39720     3.19738     1.28606
H      0.37982     1.09684     3.47102
H     -0.79040    -0.22639     3.26412
H      0.36507     0.17734     1.97619
C      2.39144    -3.09677     2.30978
C      3.45094    -2.22870     2.91613
O      2.61462    -4.05519     1.60735
O      1.16365    -2.67840     2.62092
H      0.50680    -3.24824     2.18732
H      4.35184    -2.29022     2.31405
H      3.08976    -1.20584     2.96804
H      3.66705    -2.57505     3.92784
