 48
-1375.5353322719343
C     -1.16445    -2.12219     1.75721
C     -2.24996    -2.07856     2.77706
O     -1.34314    -2.25240     0.56016
O      0.05452    -2.00643     2.27833
H      0.70820    -2.03173     1.55950
H     -2.71582    -3.05857     2.83977
H     -1.85230    -1.77872     3.74011
H     -3.02518    -1.39781     2.43745
C      2.18736    -2.18700    -0.82643
C      1.14382    -3.13060    -1.32784
O      2.27646    -1.86975     0.35700
O      2.99393    -1.73283    -1.75010
H      3.67283    -1.11159    -1.37251
H      1.25907    -3.28901    -2.39480
H      1.23822    -4.06958    -0.78793
H      0.15706    -2.73516    -1.10052
C      0.39507     2.37893    -0.90709
C      1.28586     1.18173    -1.06970
O     -0.70724     2.45109    -1.42768
O      0.91781     3.32406    -0.16058
H      0.29046     4.08936    -0.07191
H      2.13459     1.44623    -1.69476
H      1.66793     0.86933    -0.10501
H      0.72719     0.38528    -1.54088
C     -1.91034     5.40220    -0.39686
C     -2.82803     6.57090    -0.18372
O     -0.78467     5.37032     0.07799
O     -2.42928     4.44129    -1.12634
H     -1.78662     3.69009    -1.24155
H     -3.00656     6.68618     0.88268
H     -2.33425     7.47542    -0.52986
H     -3.76241     6.41838    -0.71083
C      5.00061     0.17931     0.38923
C      6.08984     1.09865     0.84667
O      4.72378     0.02824    -0.79080
O      4.36723    -0.43843     1.36722
H      3.64542    -1.00306     1.01165
H      5.80374     2.12122     0.61230
H      6.25045     0.99139     1.91290
H      6.99762     0.87696     0.29269
C     -4.62204    -3.60678    -0.01599
C     -5.76577    -4.24291    -0.75897
O     -4.68119    -3.26009     1.13782
O     -3.53455    -3.47092    -0.78837
H     -2.82491    -3.04281    -0.27287
H     -6.57166    -3.51669    -0.84572
H     -5.45141    -4.57058    -1.74355
H     -6.14196    -5.07963    -0.17520
