 72
-2063.333478314071
C     -0.83924     0.71753    -1.14394
C     -0.40513     2.09173    -1.52344
O     -1.91615     0.23698    -1.40159
O      0.11259     0.03745    -0.47925
H     -0.18687    -0.88159    -0.35046
H      0.58694     2.06560    -1.95864
H     -1.11436     2.51283    -2.22671
H     -0.35732     2.71893    -0.64258
C      0.78968     0.38907     2.67736
C      1.12573    -1.06238     2.77006
O      1.61496     1.28408     2.65566
O     -0.51203     0.63133     2.65632
H     -0.65628     1.58026     2.49251
H      2.10514    -1.24264     2.34392
H      1.13143    -1.34748     3.82260
H      0.37107    -1.64466     2.25260
C     -0.53865     4.38496     1.83343
C      0.61547     4.86023     2.64304
O     -1.10300     3.30952     2.03945
O     -0.90196     5.19371     0.87550
H     -1.62384     4.78631     0.32900
H      0.52199     5.92545     2.83651
H      0.68147     4.29176     3.56284
H      1.51079     4.69200     2.04674
C     -2.63531    -2.23932     0.54493
C     -3.37369    -1.08706     1.13918
O     -1.41888    -2.34602     0.56956
O     -3.42441    -3.13214    -0.02552
H     -2.89068    -3.85839    -0.41543
H     -2.91491    -0.80448     2.08046
H     -3.27660    -0.25243     0.44932
H     -4.42265    -1.33156     1.27212
C      2.89646     2.63363    -0.07749
C      3.71101     2.75377    -1.33618
O      1.93367     3.31910     0.17078
O      3.35119     1.67261     0.72767
H      2.72780     1.58073     1.48902
H      3.45567     3.67251    -1.85603
H      4.77356     2.74194    -1.10172
H      3.50042     1.90103    -1.98179
C     -0.83783    -5.58463    -0.55571
C     -0.43961    -7.02835    -0.60137
O     -1.83645    -5.13830    -1.08898
O      0.02075    -4.83812     0.11932
H     -0.23750    -3.89994     0.06164
H     -1.18476    -7.60079    -1.14112
H      0.52799    -7.11793    -1.09126
H     -0.33126    -7.40819     0.41202
C      3.99134    -1.15353    -0.69041
C      5.26954    -0.86136     0.02208
O      3.82757    -0.93242    -1.88016
O      3.04737    -1.66254     0.07722
H      2.24382    -1.88487    -0.44656
H      5.30644     0.20634     0.22866
H      5.31258    -1.40499     0.96013
H      6.11203    -1.11624    -0.61523
C      0.80687    -2.25146    -2.61022
C     -0.42875    -2.59567    -3.38184
O      0.92278    -2.48034    -1.41199
O      1.73624    -1.67913    -3.33483
H      2.52233    -1.41591    -2.78737
H     -0.20412    -2.66026    -4.44233
H     -0.83861    -3.52693    -3.00413
H     -1.15671    -1.80242    -3.21648
C     -3.47946     3.07802    -0.21643
C     -4.62020     2.57515    -1.03882
O     -2.74664     3.98617    -0.57327
O     -3.33169     2.43554     0.92493
H     -2.52086     2.74869     1.38985
H     -5.50953     2.47996    -0.42123
H     -4.79862     3.24722    -1.87095
H     -4.36198     1.58742    -1.41468
