 40
-1146.2784310187321
C      0.52352    -3.50274    -1.60431
C     -0.22086    -4.69943    -2.12518
O      1.09186    -3.45657    -0.54125
O      0.45407    -2.46434    -2.45219
H      0.91322    -1.70787    -2.04988
H     -0.01605    -4.85110    -3.18280
H      0.06352    -5.57779    -1.55543
H     -1.28763    -4.51661    -2.00212
C      1.96874     0.98720    -1.13972
C      3.26119     1.60859    -1.57132
O      1.67535    -0.17735    -1.28993
O      1.16014     1.87080    -0.54995
H      0.35292     1.41309    -0.26138
H      3.06682     2.34259    -2.35098
H      3.71268     2.12878    -0.72963
H      3.93177     0.84421    -1.94565
C     -0.09603    -0.26295     1.86550
C     -0.27228    -1.73288     1.75879
O     -0.71218     0.53930     1.14869
O      0.75929     0.13354     2.76423
H      0.82345     1.12936     2.81747
H     -0.03331    -2.21218     2.70293
H     -1.28588    -1.95186     1.44276
H      0.40744    -2.10816     0.98928
C     -2.48263    -1.25591    -1.69651
C     -2.91853    -1.30105    -3.13055
O     -2.64103    -2.14424    -0.89696
O     -1.86007    -0.10251    -1.39561
H     -1.57634    -0.13902    -0.47010
H     -3.58028    -2.14759    -3.28266
H     -3.41605    -0.37442    -3.40810
H     -2.03695    -1.41291    -3.76058
C      0.04164     3.52331     2.59256
C      0.03644     4.97816     2.94667
O      0.93296     2.75578     2.91913
O     -1.01094     3.15365     1.88659
H     -0.94404     2.20542     1.63888
H      0.90856     5.21248     3.54411
H      0.03729     5.56965     2.03366
H     -0.87300     5.21664     3.49277
