 48
-1375.551366800009
C     -2.92560     0.47924     2.59885
C     -3.31586     0.07328     3.98401
O     -3.70217     0.47083     1.65606
O     -1.66332     0.84192     2.48319
H     -1.44462     1.01848     1.53951
H     -2.88365    -0.90504     4.18239
H     -2.90865     0.77627     4.70550
H     -4.39552     0.01658     4.05989
C      3.03198    -0.32711    -2.53583
C      3.36291     0.10877    -3.92841
O      2.03232    -0.97613    -2.26315
O      3.89977     0.07106    -1.63046
H      3.62181    -0.24098    -0.73090
H      2.91462    -0.57685    -4.63946
H      2.93166     1.09831    -4.07003
H      4.43804     0.17138    -4.06436
C     -1.68802     0.66759    -0.98842
C     -1.12497     0.44563    -2.34783
O     -1.02725     1.12516    -0.05839
O     -2.94515     0.33570    -0.85824
H     -3.25235     0.44747     0.08207
H     -0.72629    -0.56777    -2.38512
H     -1.89387     0.54878    -3.10892
H     -0.30280     1.13573    -2.50481
C      2.15090     2.63848    -0.85841
C      3.46312     3.30951    -0.58163
O      1.66220     2.52029    -1.95635
O      1.58979     2.14185     0.25337
H      0.70744     1.79379     0.03801
H      3.39538     3.93377     0.30555
H      4.21883     2.54656    -0.40498
H      3.74876     3.90101    -1.44445
C      1.87343    -0.94863     0.99787
C      1.34590    -0.79926     2.38049
O      3.04381    -0.81053     0.70126
O      0.94685    -1.24895     0.08691
H      1.35688    -1.18629    -0.81983
H      2.17030    -0.76591     3.08547
H      0.78338     0.13083     2.44300
H      0.66819    -1.61594     2.60985
C     -2.40606    -2.61913     0.85375
C     -3.82488    -2.96178     0.51304
O     -1.98085    -2.47330     1.97300
O     -1.64561    -2.46130    -0.24174
H     -0.77147    -2.14294     0.03412
H     -3.87267    -3.59837    -0.36605
H     -4.29382    -3.44418     1.36402
H     -4.35314    -2.03330     0.29952
