 48
-1375.544050528869
C      0.31087    -0.02951     2.27872
C     -1.07703     0.30400     2.73292
O      1.07905    -0.74512     2.87035
O      0.61551     0.56173     1.10700
H      1.54702     0.37060     0.89496
H     -1.26936     1.36654     2.60409
H     -1.79670    -0.24685     2.13037
H     -1.18763     0.01763     3.77495
C      2.32605    -1.36081    -2.24965
C      1.93530    -1.56749    -3.67792
O      2.31919    -2.25048    -1.41479
O      2.66812    -0.11568    -1.96819
H      2.93475    -0.05807    -1.01970
H      0.92851    -1.17655    -3.80951
H      2.60425    -1.01865    -4.33371
H      1.94160    -2.62610    -3.91376
C     -1.11360     0.80315    -1.38637
C     -0.33276     2.06611    -1.52117
O     -2.18220     0.74456    -0.78318
O     -0.57767    -0.23848    -1.96697
H     -1.08828    -1.07542    -1.75620
H     -0.05406     2.39035    -0.52051
H      0.54731     1.90140    -2.13136
H     -0.97129     2.82799    -1.96319
C     -2.71485     4.02795     0.76262
C     -3.45147     5.31634     1.00805
O     -1.75665     3.65090     1.39129
O     -3.24234     3.33682    -0.25917
H     -2.75814     2.49664    -0.35109
H     -4.49525     5.10734     1.23559
H     -2.98859     5.84437     1.83358
H     -3.42832     5.93140     0.11026
C      3.72044    -1.00402     1.27140
C      4.34818    -0.84520     2.61308
O      3.32881    -0.04685     0.60023
O      3.60426    -2.23665     0.86509
H      3.11961    -2.27349    -0.00721
H      3.55063    -0.89820     3.35131
H      5.04877    -1.65382     2.79374
H      4.83149     0.12362     2.68311
C     -2.71110    -2.53356    -0.50483
C     -3.23713    -3.87215    -0.08081
O     -1.87323    -2.40299    -1.38622
O     -3.23854    -1.51628     0.14450
H     -2.86719    -0.66623    -0.19032
H     -3.75534    -3.79336     0.86854
H     -3.92647    -4.22891    -0.84366
H     -2.41658    -4.58109    -0.01767
