 72
-2063.328978987024
C      6.13914    -1.85488     0.49113
C      6.99297    -3.00578     0.05019
O      5.64963    -1.07314    -0.31257
O      5.95897    -1.77335     1.78698
H      5.42074    -0.96420     2.01803
H      6.40015    -3.65554    -0.58930
H      7.81662    -2.62713    -0.55005
H      7.36405    -3.55984     0.90448
C      0.66410     1.88313    -1.44715
C      1.63834     0.86417    -1.92684
O      0.43974     2.05554    -0.24711
O      0.08028     2.59515    -2.36663
H     -0.58424     3.22081    -1.96246
H      1.92007     0.23774    -1.09175
H      1.19945     0.26331    -2.71738
H      2.52620     1.36024    -2.31647
C     -3.17023     0.21514    -2.53680
C     -3.32988     1.49105    -3.30635
O     -4.08473    -0.49003    -2.17949
O     -1.88679    -0.05245    -2.25991
H     -1.85061    -0.90110    -1.78795
H     -3.25926     2.32984    -2.61411
H     -2.53203     1.59209    -4.03745
H     -4.29991     1.50805    -3.79440
C     -2.31186    -3.31155    -0.35839
C     -3.80105    -3.29312    -0.42750
O     -1.61078    -2.52674    -0.99369
O     -1.79794    -4.21645     0.43514
H     -0.80776    -4.11867     0.47810
H     -4.20768    -4.23146    -0.06261
H     -4.16398    -2.46895     0.18865
H     -4.11483    -3.08869    -1.44551
C     -4.50036     0.95241     0.56272
C     -5.92430     0.54869     0.32766
O     -4.03554     2.04406     0.34291
O     -3.76179    -0.06444     1.04167
H     -2.83875     0.22823     1.10742
H     -6.52227     1.42949     0.11610
H     -5.95642    -0.12904    -0.52317
H     -6.31262     0.02279     1.19825
C      1.44665    -2.86900     0.07814
C      2.88200    -2.63690     0.40266
O      0.77107    -3.73989     0.60053
O      0.97446    -2.04613    -0.83703
H      0.00984    -2.19987    -0.94929
H      3.49176    -2.79062    -0.48301
H      3.00410    -1.60646     0.71178
H      3.20104    -3.29982     1.19650
C     -0.10937    -0.40064     1.90036
C     -0.79956    -1.32641     2.85471
O      1.08748    -0.32241     1.78819
O     -0.94952     0.32419     1.14365
H     -0.41559     0.95538     0.60796
H     -0.87508    -2.30907     2.39138
H     -0.20531    -1.42919     3.75946
H     -1.79800    -0.97573     3.09959
C     -1.98800     4.41277    -0.15979
C     -3.20307     5.15645     0.27269
O     -1.71177     4.17656    -1.32588
O     -1.21900     4.02234     0.84270
H     -0.52400     3.42938     0.50587
H     -2.97855     5.74372     1.15771
H     -3.56615     5.78153    -0.53629
H     -3.96517     4.42178     0.52719
C      3.92732     1.05320     1.55945
C      3.06786     2.19638     1.99036
O      4.53705     0.34223     2.34006
O      3.96033     0.87341     0.24968
H      4.60239     0.15440     0.01569
H      2.03107     1.93477     1.79808
H      3.21812     2.39013     3.04659
H      3.31129     3.07781     1.40331
