 56
-1604.8084200850653
C     -1.37276    -0.90731    -2.32396
C     -1.14576    -0.22711    -3.64225
O     -2.44252    -0.98199    -1.76990
O     -0.24052    -1.41084    -1.81008
H     -0.44819    -1.85382    -0.97226
H     -2.09563    -0.00930    -4.11894
H     -0.60994     0.70519    -3.47928
H     -0.52711    -0.84179    -4.29140
C     -0.12576     3.76664    -3.24803
C     -0.97312     4.82845    -3.88839
O      0.69555     3.10952    -3.86623
O     -0.37738     3.61671    -1.96310
H      0.22482     2.94824    -1.54190
H     -0.69174     5.80044    -3.48884
H     -0.83033     4.81375    -4.96193
H     -2.01633     4.65424    -3.63551
C      0.59599     0.53577     3.02511
C      1.71011     0.31415     3.99658
O      0.73264     0.43847     1.81828
O     -0.55065     0.80808     3.60436
H     -3.00654     2.79171    -0.80871
H      1.66186    -0.72128     4.32745
H      2.66306     0.48223     3.50496
H      1.59967     0.96267     4.85995
C      2.02393     1.07728    -1.58126
C      2.62055    -0.12678    -0.92986
O      1.54186     2.01540    -0.96944
O      2.08771     1.04604    -2.90181
H      1.64036     1.84113    -3.27857
H      3.69355    -0.13395    -1.11183
H      2.41678    -0.08785     0.13301
H      2.19292    -1.02614    -1.35921
C     -1.38600    -2.57671     1.67225
C     -2.87257    -2.52509     1.55474
O     -0.64619    -2.73569     0.70301
O     -0.93713    -2.41787     2.88950
H      0.04046    -2.57937     2.92845
H     -3.21680    -1.57579     1.95509
H     -3.15553    -2.62412     0.51377
H     -3.30779    -3.32746     2.14897
C     -2.16185     1.35057     0.49765
C     -3.28361     1.84333    -0.35544
O     -2.30766     0.97793     1.64991
O     -0.99859     1.34992    -0.12527
H     -0.25460     1.08462     0.46082
H     -1.24190     0.91496     2.90630
H     -3.45108     1.11744    -1.14716
H     -4.17989     1.94820     0.24741
C      2.37320    -3.11307     1.97474
C      3.85144    -3.31838     2.12612
O      1.63286    -3.00391     2.94183
O      1.96279    -3.03270     0.72936
H      0.97907    -2.91382     0.69758
H      4.04882    -3.91555     3.01030
H      4.26958    -3.78119     1.23856
H      4.30910    -2.33957     2.26573
