 64
-1834.0628238925885
C     -1.98185    -3.08570     0.11137
C     -0.85044    -4.05946     0.13134
O     -2.57549    -2.72386     1.11133
O     -2.27964    -2.64906    -1.10171
H     -3.03816    -2.01108    -1.07013
H      0.06806    -3.51808    -0.08307
H     -0.78404    -4.53042     1.10590
H     -0.99098    -4.80109    -0.65099
C      2.91973     3.43523    -0.32784
C      2.80244     4.91665    -0.18528
O      3.29681     2.71145     0.59203
O      2.56972     2.97236    -1.49584
H      2.64430     1.98433    -1.53752
H      3.50768     5.26979     0.55843
H      2.95511     5.40280    -1.14230
H      1.79212     5.13240     0.15860
C      0.43448    -2.00849    -3.33800
C     -0.84280    -2.31518    -4.05584
O      1.08912    -2.82545    -2.74009
O      0.78368    -0.71231    -3.42243
H      1.58897    -0.58774    -2.89814
H     -0.62750    -2.95358    -4.91151
H     -1.50229    -2.85991    -3.38820
H     -1.31414    -1.39936    -4.39356
C      3.38128    -0.38374    -0.82919
C      3.51318    -1.85705    -0.97919
O      2.81877     0.33349    -1.65264
O      3.91457     0.10420     0.27093
H      3.73614     1.06986     0.35306
H      2.63732    -2.31700    -0.52268
H      3.50909    -2.12146    -2.02942
H      4.41069    -2.21064    -0.48058
C     -4.97334    -0.70148     0.04794
C     -6.15800     0.21842     0.00909
O     -4.40112    -1.05116    -0.97573
O     -4.61817    -1.08256     1.25093
H     -3.83496    -1.69327     1.20854
H     -6.97105    -0.27520    -0.51930
H     -6.46887     0.48406     1.01285
H     -5.89413     1.10840    -0.55797
C     -1.32369     1.00621    -0.64138
C     -1.72044     0.46211    -1.97836
O     -1.58032     0.47993     0.42048
O     -0.65826     2.15657    -0.74173
H     -0.42021     2.48334     0.14235
H     -2.79018     0.60180    -2.11171
H     -1.16519     0.95532    -2.76652
H     -1.51723    -0.60071    -1.99838
C      0.45870     2.63791     2.69697
C     -0.43254     2.44808     3.88163
O      0.18481     3.32402     1.73373
O      1.60639     1.96407     2.78571
H      2.14887     2.16333     2.00225
H     -1.21254     3.20225     3.87431
H     -0.88496     1.46038     3.82747
H      0.14772     2.50168     4.79917
C      0.91508    -1.13469     2.10891
C      2.03505    -1.22600     3.09838
O      0.96479    -1.52463     0.96579
O     -0.16873    -0.56372     2.63334
H     -0.84290    -0.50949     1.93598
H      2.96677    -1.37856     2.56543
H      2.07998    -0.31721     3.68928
H      1.85621    -2.06889     3.76723
