 72
-2063.3254090865235
C      2.65494     0.06565    -1.00678
C      1.18229     0.28385    -1.11275
O      3.29108     0.34878    -0.00276
O      3.21158    -0.43981    -2.08478
H      4.19886    -0.48853    -1.98036
H      0.98067     1.01851    -1.88928
H      0.69226    -0.64501    -1.39473
H      0.82102     0.64136    -0.15998
C     -2.61736     4.44033     0.29813
C     -2.91983     5.29651     1.48172
O     -1.55056     4.43559    -0.29080
O     -3.62024     3.64395    -0.05758
H     -3.34612     3.11593    -0.82568
H     -2.56933     6.30842     1.29442
H     -3.98247     5.28309     1.69528
H     -2.35981     4.90289     2.32903
C     -2.75239    -1.33672    -1.30796
C     -2.90101    -2.61961    -0.56276
O     -2.11196    -1.23795    -2.34432
O     -3.34839    -0.31047    -0.73288
H     -3.20538     0.51023    -1.26285
H     -3.79925    -2.60499     0.04123
H     -2.88743    -3.46022    -1.24451
H     -2.04277    -2.73046     0.08942
C     -0.71738    -3.93010     2.52729
C     -0.18898    -5.32306     2.43550
O     -0.01233    -2.94357     2.31919
O     -1.98720    -3.84546     2.82228
H     -2.29034    -2.89933     2.85243
H      0.81029    -5.36317     2.85923
H     -0.85944    -6.01527     2.93321
H     -0.11994    -5.57172     1.37733
C     -1.99038     1.95116    -3.09366
C     -1.57654     3.27666    -3.64302
O     -2.83773     1.84902    -2.20627
O     -1.38355     0.91885    -3.61236
H     -1.69422     0.07554    -3.17985
H     -2.44347     3.75952    -4.08804
H     -1.23529     3.90346    -2.82225
H     -0.79485     3.15473    -4.38520
C     -2.12927    -0.35957     2.35003
C     -2.72553     1.00020     2.21710
O     -2.76093    -1.33684     2.70968
O     -0.84360    -0.41090     2.03526
H     -0.48085    -1.31754     2.17459
H     -2.14491     1.57542     1.50788
H     -3.75649     0.91623     1.89184
H     -2.68853     1.51101     3.17658
C      6.46618    -0.28107    -0.75791
C      7.95869    -0.41793    -0.66493
O      5.85363    -0.58032    -1.77226
O      5.89844     0.18003     0.33391
H      4.91219     0.24665     0.22303
H      8.31205    -0.05527     0.29329
H      8.22305    -1.46456    -0.79620
H      8.41559     0.13832    -1.47945
C      0.31574     2.85107     2.00566
C      1.51120     2.23056     2.66733
O     -0.62028     3.31897     2.61079
O      0.37685     2.81249     0.66941
H     -0.30441     3.40615     0.28630
H      2.24250     1.90659     1.93409
H      1.94813     2.95621     3.35250
H      1.17818     1.37676     3.25515
C      0.64965    -3.54274    -1.02653
C      1.05169    -3.37547    -2.45971
O     -0.27043    -4.23690    -0.66283
O      1.40301    -2.82160    -0.18664
H      1.05733    -2.94708     0.71344
H      2.00995    -2.87825    -2.53725
H      1.08742    -4.35597    -2.93273
H      0.28329    -2.78989    -2.96529
