 24
-687.7643012598113
C     -0.21861    -1.51908     0.10715
C      1.00710    -2.36225     0.16181
O     -1.34541    -1.98082     0.12108
O      0.01969    -0.21625     0.04184
H     -0.83524     0.29590     0.00182
H      1.62393    -2.16898    -0.71112
H      1.60315    -2.08575     1.02702
H      0.72326    -3.40730     0.20904
C      3.61392     0.65233    -0.03769
C      4.85606     1.49570    -0.12950
O      3.61570    -0.54870     0.06661
O      2.49435     1.39384    -0.08799
H      1.72656     0.80099    -0.03064
H      5.41958     1.19190    -1.00884
H      4.60394     2.54848    -0.18703
H      5.47889     1.29853     0.73978
C     -3.36182     0.67214    -0.02377
C     -4.57566     1.55018    -0.08319
O     -2.22851     1.13050    -0.06706
O     -3.62481    -0.60991     0.07439
H     -2.78311    -1.13624     0.09646
H     -4.50720     2.30286     0.69782
H     -4.58435     2.07162    -1.03735
H     -5.47591     0.95813     0.03166
