 64
-1834.0556010014202
C     -1.50256    -1.91531     1.08748
C     -0.70328    -2.07115     2.33892
O     -1.33054    -2.61176     0.09134
O     -2.42633    -0.98817     1.14639
H     -2.94946    -0.94036     0.30971
H     -1.06661    -2.95014     2.87134
H      0.33710    -2.22731     2.07372
H     -0.81056    -1.19165     2.95965
C      3.71012    -1.55619     2.82936
C      3.91928    -2.95749     3.31861
O      4.44376    -1.02421     2.01150
O      2.65540    -0.96774     3.35599
H      2.54406    -0.06542     2.97145
H      4.88331    -3.32503     2.98829
H      3.84930    -2.98441     4.40248
H      3.12791    -3.58751     2.91777
C     -3.55023    -1.46955    -2.17618
C     -4.19848    -1.16987    -3.48660
O     -3.79623    -0.83796    -1.15109
O     -2.68148    -2.45339    -2.21231
H     -2.21310    -2.56168    -1.35053
H     -4.14416    -2.03078    -4.14373
H     -5.22302    -0.85178    -3.32420
H     -3.64979    -0.33749    -3.92733
C      2.89750     1.79219     1.15340
C      2.47889     3.03605     0.45338
O      2.41017     1.44504     2.23085
O      3.82534     1.09178     0.54515
H      4.06738     0.29052     1.08034
H      1.41580     2.98410     0.23717
H      2.62986     3.87930     1.12285
H      3.03387     3.16061    -0.46783
C      1.99346    -2.27879    -0.66973
C      3.36843    -2.27592    -1.26287
O      1.66499    -1.64171     0.30536
O      1.15759    -3.07004    -1.33888
H      0.27311    -2.99326    -0.94651
H      3.32091    -1.90669    -2.28571
H      4.01956    -1.64200    -0.67267
H      3.75982    -3.29179    -1.29480
C     -2.75267     2.30350    -2.16677
C     -2.27577     3.72055    -2.19985
O     -2.41328     1.43614    -2.93612
O     -3.60336     2.08384    -1.15528
H     -3.81984     1.13777    -1.16474
H     -3.12402     4.40028    -2.27457
H     -1.74644     3.93841    -1.27377
H     -1.60648     3.85833    -3.04139
C     -1.12587     2.31415     1.98599
C     -2.55787     2.40295     2.42153
O     -0.67074     2.85872     1.00823
O     -0.39817     1.54383     2.80087
H      0.53654     1.57312     2.52799
H     -3.15144     2.82905     1.62160
H     -2.92249     1.41186     2.67612
H     -2.63164     3.03002     3.31012
C      0.70335     0.98488    -2.16918
C     -0.23614     0.50974    -1.10692
O      1.15950     2.09613    -2.26622
O      1.03196     0.00799    -3.04629
H      1.60195     0.42021    -3.70616
H     -0.74466     1.35833    -0.67026
H     -0.96962    -0.16077    -1.53771
H      0.32069    -0.00669    -0.33163
