 72
-2063.3214272998684
C      3.90724    -2.80444     0.35045
C      5.21227    -2.37455    -0.22589
O      3.38859    -2.25552     1.32061
O      3.35031    -3.82731    -0.25415
H      2.48404    -4.04181     0.16710
H      5.20650    -1.29615    -0.35884
H      6.00105    -2.61436     0.48534
H      5.38903    -2.88546    -1.16545
C     -1.96059     3.93865     0.38024
C     -3.05216     3.27023     1.14240
O     -0.78999     3.93619     0.75554
O     -2.33760     4.52564    -0.72511
H     -1.56090     4.97632    -1.16166
H     -2.61670     2.52519     1.79857
H     -3.57287     4.02200     1.73452
H     -3.75164     2.81369     0.45224
C      0.90835     5.68551    -1.43723
C      2.02042     6.29882    -2.22922
O     -0.23971     5.62211    -1.85111
O      1.27855     5.22928    -0.25697
H      0.51112     4.79816     0.19080
H      2.97974     5.99239    -1.82728
H      1.92300     6.00822    -3.27047
H      1.92886     7.38117    -2.17108
C      0.60341    -3.89479     2.01176
C     -0.63356    -4.44366     2.63024
O      0.99403    -4.21258     0.89175
O      1.26182    -3.04966     2.77009
H      2.06728    -2.73210     2.30244
H     -1.25937    -3.62346     2.96638
H     -1.15621    -5.04207     1.89622
H     -0.35929    -5.04511     3.49638
C     -1.78968    -3.90250    -1.29968
C     -2.68004    -3.44555    -2.40903
O     -2.17598    -4.31612    -0.23014
O     -0.48739    -3.78073    -1.59797
H      0.02841    -4.03789    -0.81910
H     -2.36370    -3.89386    -3.34879
H     -3.70559    -3.70961    -2.17764
H     -2.59351    -2.36401    -2.50349
C     -2.52121     0.76855    -2.21488
C     -2.41534     1.89665    -3.20240
O     -1.88233    -0.25427    -2.30734
O     -3.36002     1.03177    -1.21750
H     -3.40491     0.24822    -0.61510
H     -2.84430     1.58245    -4.15346
H     -2.93425     2.77352    -2.83458
H     -1.36368     2.12232    -3.36810
C      3.72991     1.28509     0.94921
C      3.65875     2.76416     1.18962
O      4.33211     0.76870     0.03923
O      3.03243     0.58829     1.85814
H      3.18168    -0.35680     1.70163
H      4.54817     3.07905     1.73445
H      3.64018     3.27696     0.23264
H      2.77610     3.00850     1.76851
C      0.22659     0.57989    -0.16362
C      0.91407    -0.56651    -0.82119
O     -0.62683     0.49326     0.69474
O      0.62681     1.77116    -0.59970
H      0.15260     2.45952    -0.10981
H      0.97621    -1.39498    -0.12161
H      0.33231    -0.88172    -1.68618
H      1.90707    -0.26468    -1.14026
C     -3.13186    -1.70180     1.30177
C     -3.91535    -2.78933     1.95590
O     -3.55088    -1.03841     0.37163
O     -1.91955    -1.54594     1.80641
H     -1.46325    -0.79998     1.35587
H     -4.97352    -2.66547     1.74855
H     -3.57805    -3.73731     1.53619
H     -3.72706    -2.79604     3.02532
