 40
-1146.272439376111
C      5.14698    -4.71622     0.28816
C      5.50161    -6.17588     0.27684
O      5.88287    -3.84315     0.67881
O      3.91387    -4.49226    -0.18654
H      3.72187    -3.54077    -0.14467
H      4.70482    -6.76441    -0.16393
H      6.42734    -6.30866    -0.27826
H      5.68789    -6.49827     1.29918
C      3.53661    -0.80677     0.10302
C      4.98322    -0.85198     0.45126
O      2.87665    -1.79537    -0.19560
O      3.01792     0.40291     0.14743
H      2.06235     0.38688    -0.07736
H      5.37954     0.15292     0.54431
H      5.10516    -1.40059     1.38177
H      5.51492    -1.42136    -0.30473
C     -2.08920     3.22008     0.17809
C     -2.62269     4.54168     0.61534
O     -2.76888     2.29982    -0.23660
O     -0.76565     3.12897     0.28274
H     -0.49346     2.24091    -0.00255
H     -3.28938     4.92901    -0.14968
H     -3.23521     4.40026     1.50237
H     -1.80898     5.22957     0.81558
C     -6.24018     2.98913     0.42849
C     -7.71549     2.72012     0.55742
O     -5.73135     4.05909     0.65533
O     -5.56280     1.90051     0.03837
H     -4.61332     2.11664    -0.03075
H     -8.26061     3.47756    -0.00069
H     -7.96002     1.72668     0.19801
H     -7.99803     2.82057     1.60365
C     -0.31040    -0.50261    -0.95886
C     -1.72204    -0.43815    -1.43789
O      0.28853     0.45812    -0.49015
O      0.23932    -1.69240    -1.08650
H      1.16593    -1.69917    -0.75788
H     -2.37506    -0.18300    -0.60875
H     -1.81034     0.37064    -2.15816
H     -2.00781    -1.38585    -1.88007
