 48
-1375.5456358936713
C     -1.92503     4.59461    -1.92597
C     -2.05723     6.06488    -2.19452
O     -2.61680     3.74739    -2.45922
O     -0.97220     4.31479    -1.04806
H     -0.94256     3.35128    -0.85966
H     -2.31372     6.58013    -1.27148
H     -1.10507     6.46036    -2.54086
H     -2.82667     6.22915    -2.93890
C      2.37076     1.30881    -0.81850
C      2.41511     2.71264    -1.33794
O      2.24630     0.33812    -1.54895
O      2.46909     1.21786     0.48669
H      2.38366     0.26809     0.76312
H      1.58453     3.27302    -0.91511
H      3.33816     3.19356    -1.02202
H      2.34175     2.70570    -2.41926
C     -1.22617     0.79668    -1.39067
C     -0.77669    -0.62298    -1.38492
O     -0.85723     1.62438    -0.55669
O     -2.04196     1.09699    -2.37153
H     -2.27066     2.06027    -2.36909
H     -1.62984    -1.29213    -1.39720
H     -0.17647    -0.80675    -2.27070
H     -0.19262    -0.81243    -0.49905
C     -0.65632    -0.24375     2.53165
C     -0.10119    -0.76712     3.81368
O     -1.26117    -0.91462     1.71700
O     -0.41118     1.04036     2.33728
H     -0.71432     1.26771     1.44439
H      0.96091    -0.95827     3.66792
H     -0.21395    -0.02646     4.60111
H     -0.59832    -1.69415     4.07954
C      2.32689    -2.25929     0.50245
C      2.37212    -3.64186     1.05897
O      2.12579    -1.27352     1.20133
O      2.49841    -2.20116    -0.79505
H      2.42835    -1.26773    -1.11639
H      2.49612    -3.60030     2.13541
H      1.42233    -4.11517     0.81482
H      3.17355    -4.20765     0.59106
C     -1.36758    -4.06850     0.87191
C     -1.85276    -5.48326     0.69626
O     -0.64808    -3.50486     0.08229
O     -1.80312    -3.51455     2.00454
H     -1.54808    -2.56452     1.98710
H     -2.51149    -5.52592    -0.16998
H     -1.00197    -6.12997     0.49042
H     -2.38266    -5.82514     1.57947
