 48
-1375.5451036903087
C     -3.51878    -2.77906     0.82459
C     -4.49661    -3.85497     0.44544
O     -3.56619    -2.19015     1.89414
O     -2.61902    -2.52789    -0.10281
H     -1.97106    -1.84631     0.22247
H     -4.96274    -3.60926    -0.50583
H     -3.96709    -4.79716     0.32061
H     -5.24797    -3.95342     1.22024
C      1.74473    -0.94959    -1.26347
C      0.55931    -0.92248    -2.16624
O      2.26118     0.06318    -0.79436
O      2.19683    -2.15297    -1.01647
H      2.99626    -2.13717    -0.42776
H     -0.30913    -1.25630    -1.60150
H      0.39256     0.08867    -2.51505
H      0.70890    -1.60115    -3.00298
C      0.38671     3.23424    -1.48499
C      0.00708     4.65935    -1.25821
O     -0.15238     2.48995    -2.28573
O      1.36975     2.82105    -0.69998
H      1.54648     1.88371    -0.88453
H     -0.32746     5.10646    -2.18936
H     -0.82123     4.67345    -0.55135
H      0.84402     5.20658    -0.83825
C     -2.80226     1.74654    -0.47079
C     -4.10618     1.18542     0.01715
O     -2.13640     2.53125     0.16802
O     -2.45125     1.26301    -1.65922
H     -1.60254     1.67088    -1.93130
H     -4.58216     1.89853     0.68307
H     -4.76097     0.93900    -0.81292
H     -3.91297     0.27525     0.58294
C      5.06237    -1.20041     0.77639
C      6.38110    -1.25870     1.48834
O      4.37415    -2.18215     0.55716
O      4.72414     0.02357     0.41076
H      3.84576     0.02736    -0.03263
H      6.34506    -0.62267     2.36968
H      6.59664    -2.28163     1.77124
H      7.16212    -0.87501     0.83595
C     -0.98848    -0.08509     1.78693
C     -0.02537     1.01030     2.09563
O     -0.92524    -0.74508     0.75679
O     -1.92201    -0.26246     2.69006
H     -2.52235    -1.01185     2.43633
H      0.95980     0.73339     1.73408
H     -0.35950     1.89217     1.54991
H     -0.01235     1.22131     3.16127
