 32
-917.0190131367167
C     -2.00586    -5.11107     0.42497
C     -2.93893    -6.25782     0.14757
O     -0.92978    -5.20205     0.95830
O     -2.53432    -3.94460     0.00965
H     -1.89745    -3.23138     0.18089
H     -3.12613    -6.32686    -0.92241
H     -2.49880    -7.17937     0.51010
H     -3.89429    -6.07770     0.63695
C     -0.48580    -1.12841     1.41118
C     -0.85648    -2.00985     2.55533
O      0.14191    -0.09394     1.53762
O     -0.89648    -1.57683     0.23653
H     -0.61785    -0.95429    -0.49139
H     -0.61002    -1.52784     3.49535
H     -1.91871    -2.23777     2.50479
H     -0.32203    -2.95230     2.45847
C      2.96058     4.67435    -0.62715
C      3.80074     5.83363    -0.16591
O      2.60490     4.48467    -1.76285
O      2.64918     3.85975     0.39634
H      2.10716     3.12771     0.05773
H      4.01056     6.48493    -1.00576
H      3.27337     6.37870     0.61397
H      4.72941     5.46189     0.26235
C      0.53408     1.10474    -1.52109
C      0.93090     1.95065    -2.67837
O     -0.14110     0.09687    -1.63287
O      0.97597     1.53900    -0.34975
H      0.67307     0.93314     0.37948
H      0.53962     2.95556    -2.54587
H      2.01247     2.04408    -2.70877
H      0.55544     1.51159    -3.59546
