 56
-1604.797445237364
C     -1.38730     2.68786    -2.69305
C     -2.41271     2.41426    -3.74956
O     -0.24160     2.30252    -2.70887
O     -1.88161     3.42903    -1.69168
H     -1.16072     3.61192    -1.06786
H     -1.94156     1.90362    -4.58213
H     -3.19634     1.78560    -3.33540
H     -2.86479     3.34749    -4.07836
C      2.10236    -3.01437     0.47445
C      1.60814    -3.84484    -0.67709
O      3.26467    -2.77526     0.69842
O      1.08935    -2.56896     1.22921
H      1.45639    -2.10965     2.01050
H      1.28038    -4.81099    -0.29447
H      0.75589    -3.36369    -1.14838
H      2.41609    -3.99192    -1.38691
C      1.34128     3.61365     0.14530
C      1.81621     4.22829    -1.12972
O      0.15526     3.50488     0.44083
O      2.31113     3.19773     0.93079
H      0.48274    -0.09026     4.52393
H      1.46478     3.61477    -1.95761
H      1.36982     5.21332    -1.23636
H      2.89851     4.28867    -1.13233
C     -3.88170    -3.16697    -3.37088
C     -4.70800    -4.08488    -4.22436
O     -4.10430    -1.96535    -3.31229
O     -2.91656    -3.76343    -2.71198
H     -2.40193    -3.10676    -2.17033
H     -5.75588    -3.96623    -3.96129
H     -4.59707    -3.79006    -5.26520
H     -4.39325    -5.11310    -4.08931
C     -1.77935    -0.79533    -1.23401
C     -0.93482     0.11726    -0.40824
O     -1.57661    -1.99797    -1.29904
O     -2.75072    -0.19591    -1.89351
H     -3.27541    -0.85237    -2.42850
H     -0.36376    -0.46598     0.30102
H     -0.26043     0.65452    -1.06876
H     -1.56752     0.83696     0.09999
C      0.18378     1.64106     3.35082
C     -0.25518     0.69829     4.42070
O      1.35183     1.97485     3.18905
O     -0.79496     2.08897     2.59614
H     -0.44875     2.67288     1.88448
H      1.96343     2.76656     1.74452
H     -0.31020     1.24921     5.35858
H     -1.23233     0.29215     4.18158
C      3.41953    -0.98043     3.36528
C      4.61219    -1.87331     3.45079
O      2.26312    -1.36486     3.37438
O      3.73279     0.30781     3.28452
H      2.91853     0.83182     3.21602
H      4.66478    -2.45808     2.53465
H      5.50876    -1.27802     3.57613
H      4.48201    -2.56345     4.28165
