 48
-1375.5385920450922
C     -3.93207     2.48589     3.87463
C     -3.48679     3.49211     4.89881
O     -4.45728     1.42838     4.12290
O     -3.67051     2.90402     2.62738
H     -3.97712     2.22774     2.00174
H     -2.41732     3.66953     4.80164
H     -3.99364     4.43975     4.72748
H     -3.71520     3.11980     5.89042
C      3.24608    -2.25653    -1.52649
C      1.80728    -2.63768    -1.69021
O      3.60672    -1.42443    -0.69513
O      4.07336    -2.86879    -2.32663
H      5.01686    -2.56534    -2.18461
H      1.69915    -3.42680    -2.42659
H      1.41100    -2.95450    -0.72896
H      1.25222    -1.75173    -1.99311
C      0.56255     0.32603     0.34590
C     -0.60298     0.63089     1.23838
O      0.73770     0.83893    -0.73468
O      1.36845    -0.61227     0.85602
H      2.10215    -0.78378     0.23780
H     -1.45247     0.03709     0.90753
H     -0.39589     0.39072     2.27534
H     -0.87499     1.67669     1.13576
C     -4.51482    -0.16678     0.69815
C     -5.50438    -0.50075     1.76392
O     -4.14492     0.98584     0.48213
O     -4.07316    -1.19610     0.02009
H     -3.41667    -0.92289    -0.68354
H     -5.78539    -1.54639     1.70589
H     -5.06852    -0.26872     2.73368
H     -6.36907     0.14696     1.64697
C      6.93290    -1.17775    -1.26815
C      8.36422    -0.74328    -1.19086
O      6.56736    -2.08841    -1.99725
O      6.12105    -0.49778    -0.48687
H      5.19577    -0.83149    -0.56792
H      8.46459     0.11374    -0.53550
H      8.96245    -1.57336    -0.82329
H      8.71650    -0.50646    -2.19125
C     -2.08082     0.60208    -2.22715
C     -1.16156     0.87170    -3.36723
O     -2.32744    -0.51770    -1.80384
O     -2.59854     1.69262    -1.69662
H     -3.18402     1.45442    -0.94555
H     -1.55498     1.68272    -3.97313
H     -0.20191     1.17959    -2.95620
H     -1.02782    -0.03208    -3.95185
