 40
-1146.2846993835824
C      3.31280    -1.94206     1.55789
C      4.06179    -2.37810     2.78342
O      2.70656    -2.71804     0.83855
O      3.35671    -0.64074     1.35092
H      2.90645    -0.41480     0.51090
H      4.63051    -3.27645     2.56084
H      4.70976    -1.58259     3.13223
H      3.34182    -2.62807     3.56110
C      1.67410    -0.60896    -1.97405
C      2.19700    -1.72053    -2.82226
O      2.30411    -0.08555    -1.07672
O      0.42952    -0.26992    -2.27158
H      0.11917     0.43539    -1.66878
H      2.04691    -2.65109    -2.27552
H      1.65994    -1.77396    -3.76304
H      3.26197    -1.59135    -2.98715
C     -0.12831     2.30873     0.30513
C     -0.02292     3.79926     0.41089
O     -0.61923     1.75197    -0.67149
O      0.36647     1.65776     1.32359
H      0.20550     0.68724     1.22780
H      0.27637     4.08808     1.41177
H      0.71521     4.15156    -0.30805
H     -0.98092     4.23798     0.14670
C     -4.21059     1.76088    -0.33850
C     -5.58206     2.37533    -0.25903
O     -3.92507     0.65374     0.04033
O     -3.32671     2.61117    -0.89222
H     -2.46155     2.17207    -0.91760
H     -5.53214     3.32582     0.26894
H     -5.95126     2.57650    -1.26359
H     -6.25650     1.69768     0.25246
C     -0.64922    -1.76409     0.39243
C     -2.05042    -1.83614    -0.10503
O     -0.23282    -0.88947     1.13275
O      0.12909    -2.72853    -0.06411
H      1.03986    -2.64712     0.30077
H     -2.25368    -2.81062    -0.53589
H     -2.74626    -1.60346     0.69437
H     -2.18710    -1.06138    -0.85758
