 64
-1834.0662420919791
C     -1.02376     0.19102     0.42560
C     -0.71141     1.46073    -0.28744
O     -2.15002    -0.14866     0.74467
O      0.03861    -0.54990     0.69067
H     -0.22027    -1.31565     1.26385
H      0.02270     1.26678    -1.06464
H     -1.61960     1.87348    -0.71437
H     -0.28019     2.16533     0.42298
C      2.52887    -0.65438     2.94332
C      2.22859    -1.40533     4.19363
O      2.31373     0.54583     2.80118
O      3.06564    -1.39451     2.00421
H      3.25028    -0.86590     1.19674
H      1.52839    -2.20247     3.95405
H      3.14301    -1.86110     4.56859
H      1.79176    -0.74297     4.92861
C     -3.32519    -0.31025    -2.97555
C     -4.27743    -1.13114    -2.15145
O     -3.26681     0.89590    -2.92988
O     -2.53034    -1.06717    -3.74424
H     -1.96630    -0.47893    -4.28664
H     -4.51421    -2.06571    -2.65215
H     -3.80188    -1.35170    -1.19718
H     -5.17569    -0.55176    -1.95984
C      3.41098     1.34317    -0.28611
C      3.84694     2.14196    -1.47298
O      3.66414     0.14959    -0.15889
O      2.71311     2.01671     0.59983
H      2.54259     1.47479     1.40706
H      4.68470     1.64914    -1.95230
H      3.01542     2.18606    -2.17532
H      4.10071     3.15590    -1.18106
C     -1.65930    -2.37588     3.10683
C     -1.77460    -3.11497     4.40326
O     -0.67999    -2.44502     2.37979
O     -2.71101    -1.63416     2.83558
H     -2.55607    -1.11382     2.00775
H     -1.13158    -3.98863     4.38863
H     -1.44603    -2.44450     5.19640
H     -2.80735    -3.39393     4.58913
C      1.60085    -1.24066    -2.71789
C      0.91108    -2.17096    -3.66092
O      1.42343    -0.03678    -2.69011
O      2.44228    -1.85227    -1.89385
H      2.83952    -1.20141    -1.29281
H      1.52717    -3.04534    -3.84751
H     -0.03126    -2.49130    -3.21991
H      0.68284    -1.64379    -4.58052
C     -0.95180     1.11757     3.93291
C     -2.34365     1.66262     4.06247
O     -0.51708     0.19474     4.57668
O     -0.24024     1.76235     2.99379
H      0.65520     1.38335     2.96320
H     -2.70463     1.49403     5.07240
H     -2.37319     2.71800     3.80982
H     -2.98567     1.12110     3.36973
C     -0.89071     1.79653    -4.68023
C     -1.80027     2.92227    -5.05329
O     -0.96405     0.67293    -5.14347
O      0.01143     2.13386    -3.76639
H      0.52012     1.34481    -3.50458
H     -2.73654     2.79013    -4.51531
H     -1.35346     3.87079    -4.77700
H     -2.00980     2.88294    -6.11870
