 48
-1375.5394909329702
C      0.04330     0.62634     3.20053
C      1.41252     0.35129     3.74528
O     -0.77101     1.37197     3.68181
O     -0.18839    -0.07334     2.06960
H     -1.04660     0.20041     1.70922
H      1.50891    -0.71065     3.96591
H      2.16253     0.59504     2.99631
H      1.57343     0.93439     4.64645
C      5.29966     0.40674    -0.63787
C      6.33518     1.46245    -0.89470
O      5.06463    -0.01024     0.48667
O      4.67661    -0.01243    -1.71869
H      4.00529    -0.70771    -1.48691
H      7.28044     1.14214    -0.46495
H      6.43837     1.64328    -1.95821
H      6.03597     2.37436    -0.38355
C      0.20694     1.07555    -1.58337
C      1.24610     0.99716    -2.65846
O     -0.02171     2.04709    -0.90606
O     -0.46592    -0.07943    -1.44907
H     -1.13248     0.03775    -0.75189
H      1.79022     0.06026    -2.57693
H      0.76166     1.03083    -3.63443
H      1.93077     1.83384    -2.56563
C     -3.05179     1.55765     0.31281
C     -2.49016     2.79171     0.92087
O     -2.55956     0.43499     0.48201
O     -4.10667     1.73740    -0.43121
H     -4.46957     0.88090    -0.79315
H     -1.57648     3.02493     0.37214
H     -3.20152     3.60669     0.83792
H     -2.21953     2.59194     1.95387
C      2.43010    -2.01260     0.05103
C      1.21682    -2.84859     0.30770
O      2.84302    -1.77991    -1.07608
O      3.00261    -1.55270     1.14230
H      3.79565    -0.99751     0.90994
H      1.53087    -3.88251     0.44776
H      0.71695    -2.50210     1.20441
H      0.56083    -2.78788    -0.55367
C     -4.86686    -1.63668    -1.05751
C     -5.59706    -2.85929    -1.52267
O     -5.16429    -0.50416    -1.39821
O     -3.86428    -1.90692    -0.23875
H     -3.40082    -1.08437     0.02312
H     -6.41162    -2.57268    -2.17623
H     -4.90603    -3.51440    -2.04813
H     -5.97722    -3.40392    -0.66165
