 56
-1604.802233928399
C      4.66082     0.27398    -1.77685
C      5.90356     0.02587    -2.56613
O      4.30799    -0.44679    -0.84670
O      3.97912     1.31982    -2.16809
H      3.15015     1.45048    -1.62429
H      6.71667    -0.21586    -1.88882
H      5.75499    -0.85304    -3.18857
H      6.13778     0.88927    -3.17863
C     -2.29143     1.56654    -2.04168
C     -1.18751     1.82555    -3.01844
O     -3.20243     0.78340    -2.26440
O     -2.18795     2.24835    -0.91715
H     -2.96861     2.07116    -0.34102
H     -1.36875     1.27114    -3.93295
H     -1.13566     2.89170    -3.22933
H     -0.23749     1.53088    -2.58013
C     -2.70140     0.62931     3.57701
C     -1.62572     0.49140     4.60773
O     -3.59317    -0.18055     3.40473
O     -2.58386     1.72872     2.84933
H     -6.03341    -0.00185     1.95396
H     -1.25157     1.46669     4.89937
H     -2.00538    -0.05494     5.46481
H     -0.81043    -0.08343     4.16968
C      1.48477     1.20254     0.27479
C      0.29473     1.60365     1.06809
O      1.78945     1.72607    -0.79009
O      2.17705     0.21546     0.80571
H      2.93047    -0.03235     0.22594
H     -0.06839     2.56561     0.73412
H     -0.47224     0.84600     0.92834
H      0.53995     1.62519     2.12404
C     -2.36771    -1.60348     0.64412
C     -2.21752    -2.31522    -0.66769
O     -1.47239    -1.01476     1.20604
O     -3.61666    -1.67327     1.11437
H     -3.64422    -1.22995     1.98804
H     -1.18193    -2.26374    -0.98421
H     -2.52766    -3.35426    -0.57155
H     -2.85419    -1.83783    -1.40988
C     -5.27987     0.94380     0.24037
C     -6.39966     0.68057     1.18898
O     -4.31516     1.64055     0.55141
O     -5.38898     0.37070    -0.92419
H     -4.57395     0.54835    -1.47251
H     -3.23905     1.69499     2.13310
H     -6.68501     1.60631     1.68112
H     -7.24515     0.23667     0.67477
C      6.58765    -3.37755    -0.91088
C      7.15195    -4.65534    -0.35568
O      6.87102    -2.90700    -1.98487
O      5.72420    -2.81412    -0.05515
H      5.35686    -2.00278    -0.44903
H      6.34544    -5.36100    -0.16554
H      7.85621    -5.07591    -1.06382
H      7.64572    -4.45754     0.59375
