 32
-917.0194686442901
C      1.61411    -1.40561    -0.32535
C      2.62033    -2.50492    -0.29091
O      1.88505    -0.22248    -0.41628
O      0.36054    -1.84014    -0.24592
H     -0.24733    -1.07917    -0.26049
H      3.32130    -2.37308    -1.11028
H      3.20588    -2.42123     0.62116
H      2.12667    -3.46859    -0.34423
C     -1.66181     1.31952    -0.25198
C     -0.33967     1.98459    -0.46133
O     -1.79303     0.09757    -0.22254
O     -2.66295     2.14882    -0.10816
H     -3.52666     1.67102     0.03198
H      0.03503     1.71226    -1.44562
H     -0.44516     3.06072    -0.37949
H      0.37815     1.60024     0.25518
C      5.37630     0.28728     0.22667
C      6.64923     1.03846     0.51286
O      5.32075    -0.91014     0.09022
O      4.31777     1.10488     0.14714
H      3.51672     0.58010    -0.04385
H      7.02874     0.72511     1.48358
H      7.39371     0.76473    -0.23122
H      6.47576     2.10890     0.50583
C     -5.20152    -0.25218     0.26776
C     -6.55909    -0.85432     0.46096
O     -5.00956     0.95294     0.27191
O     -4.24298    -1.14197     0.09232
H     -3.37445    -0.69657    -0.02313
H     -6.49791    -1.93625     0.45822
H     -6.97402    -0.49568     1.39924
H     -7.21258    -0.50849    -0.33602
