 40
-1146.2912935677266
C      2.05100    -1.17552     1.10119
C      2.44044    -1.61208     2.47705
O      2.72137    -0.47761     0.38050
O      0.84328    -1.63552     0.74857
H      0.65675    -1.32968    -0.15506
H      1.82129    -1.08006     3.19819
H      2.26436    -2.67869     2.60127
H      3.48452    -1.37713     2.65730
C      1.52683    -0.20386    -2.54455
C      2.89788    -0.74799    -2.77965
O      0.63042    -0.86275    -2.01642
O      1.35659     1.03194    -2.93514
H      0.41360     1.32714    -2.80077
H      2.82328    -1.75102    -3.19152
H      3.44880    -0.09066    -3.44250
H      3.39912    -0.81456    -1.81593
C     -0.09175     1.84583     1.28350
C      0.78760     2.72967     0.45719
O     -1.24838     1.58985     0.98345
O      0.50364     1.36670     2.35411
H     -0.08358     0.71313     2.81237
H      0.21696     3.11664    -0.37779
H      1.17378     3.54621     1.06424
H      1.62957     2.14415     0.09555
C     -2.05549     1.10718    -2.15777
C     -3.42577     1.66769    -1.95336
O     -1.11473     1.79445    -2.52857
O     -1.94955    -0.17585    -1.89242
H     -1.00988    -0.46288    -1.96105
H     -3.57590     2.51367    -2.61595
H     -4.17435     0.89951    -2.11547
H     -3.49592     2.01515    -0.92392
C     -1.67660    -1.25497     2.63728
C     -1.94375    -2.70886     2.88639
O     -0.98253    -0.57434     3.37745
O     -2.24587    -0.79594     1.54283
H     -1.92794     0.12170     1.36135
H     -1.85424    -2.92896     3.94527
H     -2.92448    -2.98154     2.51060
H     -1.19295    -3.28001     2.34104
