 80
-2292.589320966937
C     -0.47854     3.72971     2.02098
C     -1.92668     3.97104     2.28910
O      0.27703     3.27322     2.86498
O     -0.09053     4.06096     0.80802
H      0.87565     3.90915     0.70197
H     -2.02766     4.88401     2.87363
H     -2.46718     4.07261     1.35484
H     -2.31284     3.13452     2.85965
C     -3.45865     0.63407     1.35787
C     -4.56560     0.47999     0.36014
O     -2.44661     1.27610     1.14739
O     -3.69658     0.02262     2.49759
H     -3.02281     0.29242     3.16680
H     -5.06140    -0.47452     0.50113
H     -5.29696     1.27161     0.52317
H     -4.17466     0.56585    -0.64763
C     -1.29893    -4.73411    -4.36078
C     -0.64654    -5.09610    -5.65660
O     -1.08678    -5.33285    -3.31675
O     -2.11002    -3.69911    -4.45246
H     -2.33582    -3.37192    -3.55486
H     -0.35415    -6.14060    -5.65165
H     -1.31194    -4.87718    -6.48558
H      0.24517    -4.47822    -5.75712
C      1.49852    -2.81785    -2.16814
C      2.19993    -4.13820    -2.09464
O      1.51261    -1.97968    -1.29838
O      0.83399    -2.66161    -3.31039
H      0.33840    -1.81736    -3.27516
H      2.73993    -4.33673    -3.01852
H      2.88164    -4.15218    -1.25026
H      1.45907    -4.92606    -1.96439
C     -1.93062    -3.13609    -0.95542
C     -2.11746    -2.47470     0.37047
O     -2.40293    -2.65891    -1.98711
O     -1.23661    -4.23635    -0.93779
H     -1.20571    -4.66757    -1.83424
H     -1.77791    -1.45099     0.30048
H     -3.17976    -2.45930     0.59626
H     -1.56502    -2.97860     1.15302
C      0.57473    -0.29411     1.45234
C      2.02758    -0.59653     1.39862
O     -0.23772    -0.90779     2.11978
O      0.21637     0.73943     0.69914
H     -0.75440     0.88893     0.75822
H      2.59925     0.30260     1.60591
H      2.26513    -1.37292     2.12019
H      2.28589    -0.93373     0.39971
C      3.31440     1.23145    -1.55075
C      3.39703     0.31737    -2.73425
O      3.88371     1.04529    -0.50223
O      2.51418     2.28364    -1.77802
H      2.48825     2.82581    -0.97121
H      3.46601     0.88919    -3.65625
H      4.25225    -0.34059    -2.62525
H      2.49244    -0.28513    -2.76742
C     -0.96972     0.86286     4.86361
C     -0.55068     1.73237     6.00441
O     -2.00548     1.03477     4.24409
O     -0.11344    -0.09492     4.58863
H     -0.31638    -0.48947     3.71180
H     -1.41752     2.22832     6.42781
H     -0.03073     1.14302     6.75341
H      0.13714     2.48535     5.62257
C      3.31445     3.43069     1.58254
C      4.79872     3.41331     1.43107
O      2.55659     3.70849     0.65340
O      2.88077     3.10998     2.77404
H      1.88847     3.16236     2.83067
H      5.27895     3.39874     2.40258
H      5.05990     2.51648     0.87043
H      5.11266     4.27342     0.84655
C     -0.97555     0.49804    -2.34528
C     -0.65644     1.94048    -2.12334
O     -0.38611    -0.21461    -3.13133
O     -1.98786     0.05621    -1.60142
H     -2.17285    -0.87834    -1.83105
H     -0.22082     2.37254    -3.01819
H     -1.54562     2.48381    -1.82298
H      0.07676     2.01180    -1.32696
