 40
-1146.284590789401
C      1.75990    -2.77083     0.01430
C      2.47783    -3.66718    -0.94275
O      0.54296    -2.71271     0.09642
O      2.56777    -2.03710     0.75000
H      2.05737    -1.31957     1.17840
H      3.37563    -4.06389    -0.47797
H      1.82327    -4.46541    -1.27475
H      2.77667    -3.06621    -1.80085
C     -0.10201     0.27772     1.34879
C     -0.77565     1.58141     1.59055
O      1.09944     0.10915     1.51551
O     -0.88445    -0.70140     0.92970
H     -0.34368    -1.49770     0.65949
H     -0.85260     2.07744     0.62322
H     -1.77039     1.42289     1.99631
H     -0.16347     2.18590     2.25242
C      2.97845     2.59528    -0.14698
C      3.45674     3.94796    -0.58938
O      3.22709     1.55859    -0.72810
O      2.24667     2.66045     0.95575
H      1.90410     1.77314     1.16570
H      3.75982     4.53500     0.27272
H      4.27803     3.84029    -1.28850
H      2.63485     4.46678    -1.07915
C     -4.61572    -0.55108     1.33105
C     -6.05431    -0.97430     1.20506
O     -4.22877     0.42717     1.91688
O     -3.79063    -1.40692     0.69976
H     -2.87849    -1.09582     0.80832
H     -6.17991    -1.97706     1.60948
H     -6.68348    -0.27288     1.74087
H     -6.33795    -1.00378     0.15437
C      0.36078     0.39212    -1.95739
C     -0.67987    -0.44266    -2.64497
O      0.15951     1.49185    -1.49992
O      1.53424    -0.23724    -1.87274
H      2.18470     0.36698    -1.45122
H     -0.26964    -0.91446    -3.53464
H     -1.00130    -1.22959    -1.96361
H     -1.53310     0.17653    -2.90137
