 80
-2292.5807465100133
C      6.52109    -1.09510     2.23398
C      7.53122    -1.03795     3.34382
O      6.65547    -0.45853     1.20013
O      5.49481    -1.88122     2.47948
H      4.87051    -1.88879     1.70803
H      7.63185    -0.00701     3.67489
H      7.22656    -1.67324     4.16746
H      8.49768    -1.35156     2.95683
C     -5.54940     1.67697     1.02374
C     -6.98012     1.45683     1.37014
O     -5.15586     1.87474    -0.12188
O     -4.73147     1.65209     2.05729
H     -3.79637     1.78756     1.77892
H     -7.53852     2.35254     1.10595
H     -7.36811     0.64103     0.76594
H     -7.08145     1.24594     2.42798
C     -1.52473    -1.62657    -0.59064
C     -2.71515    -0.74416    -0.75802
O     -0.90536    -2.10480    -1.53706
O     -1.20557    -1.85672     0.66065
H     -0.49144    -2.54538     0.72719
H     -3.53487    -1.32966    -1.16286
H     -2.99886    -0.31535     0.19537
H     -2.47197     0.03491    -1.47124
C      3.42424     2.86523    -0.08590
C      4.73757     3.59422    -0.11892
O      2.63604     2.86301    -1.00407
O      3.23801     2.21358     1.06658
H      2.46159     1.62291     0.98819
H      4.69926     4.38353    -0.86372
H      4.97630     3.99875     0.86094
H      5.51653     2.88533    -0.39761
C      1.24287    -4.26450    -0.07151
C      2.34141    -5.25085     0.16939
O      0.65732    -3.69574     0.83672
O      0.98782    -4.04216    -1.34538
H      0.26878    -3.37744    -1.43796
H      3.24456    -4.68775     0.40429
H      2.09501    -5.86998     1.02691
H      2.51126    -5.85359    -0.71619
C     -6.75740    -0.73970    -2.08995
C     -6.91795    -1.80692    -3.13388
O     -7.40274    -0.65485    -1.07373
O     -5.78428     0.12256    -2.41588
H     -5.72782     0.78115    -1.70785
H     -7.71799    -2.47782    -2.84484
H     -7.13547    -1.35299    -4.09851
H     -5.98621    -2.36057    -3.23442
C      0.85887     0.15002     2.29330
C      1.51397    -0.88452     3.14215
O      1.24524     0.46858     1.18245
O     -0.20738     0.69394     2.85110
H     -0.69373     1.22837     2.19777
H      1.01150    -1.83454     2.96570
H      2.55683    -0.98773     2.86253
H      1.41568    -0.63938     4.19696
C     -1.90369     2.84168     0.39118
C     -0.57480     3.48996     0.22437
O     -2.14394     2.01991     1.27249
O     -2.80527     3.23409    -0.47407
H     -3.64783     2.74095    -0.35712
H     -0.20556     3.29765    -0.77686
H     -0.66486     4.56628     0.35956
H      0.12222     3.08071     0.94431
C      3.78395    -0.96160    -0.41865
C      2.61397    -0.80246    -1.32885
O      3.84508    -1.83706     0.43351
O      4.74652    -0.09033    -0.61437
H      5.47732    -0.22857     0.04068
H      1.70124    -0.85582    -0.74267
H      2.67766     0.14155    -1.85500
H      2.61664    -1.62863    -2.03706
C      0.04970     1.02874    -2.96216
C      0.87350     2.07830    -3.63104
O     -0.64784     1.22726    -1.99341
O      0.15154    -0.17716    -3.53043
H     -0.37018    -0.79550    -2.99732
H      0.22487     2.91174    -3.89687
H      1.60661     2.45778    -2.91953
H      1.36736     1.68162    -4.51310
