 56
-1604.8117918700896
C      2.70827     2.20447    -0.95714
C      1.84853     3.42878    -0.96758
O      3.86069     2.18463    -0.60007
O      2.06617     1.10498    -1.38099
H      2.68567     0.35779    -1.34699
H      0.83976     3.19880    -1.28958
H      1.82615     3.83669     0.03973
H      2.30496     4.17100    -1.61992
C     -1.98294    -0.46176    -2.02053
C     -0.62953    -0.15017    -2.56850
O     -2.22043    -1.46456    -1.36606
O     -2.89245     0.44886    -2.30554
H     -3.76783     0.19284    -1.91665
H      0.04480    -0.96059    -2.32795
H     -0.69707    -0.01324    -3.64672
H     -0.26269     0.77080    -2.12721
C      0.80253     0.79541     2.25985
C      1.91274     0.31207     3.14049
O     -0.16862     0.11625     1.97101
O      0.99588     2.02510     1.82808
H     -4.33995     2.32725     0.31523
H      1.96377    -0.76918     3.09426
H      2.84838     0.75705     2.82109
H      1.70686     0.62377     4.16336
C      1.34542    -2.79883     0.49059
C      0.00873    -3.34301     0.87090
O      2.27742    -2.73654     1.27771
O      1.42946    -2.37448    -0.75583
H      2.31826    -1.97964    -0.92394
H     -0.67410    -3.28701     0.03190
H      0.12921    -4.36998     1.21160
H     -0.36821    -2.74802     1.69979
C     -5.26941    -0.93484    -0.15294
C     -6.52100    -1.04388     0.66896
O     -5.16000    -0.11044    -1.04945
O     -4.33142    -1.79110     0.17968
H     -3.52789    -1.67852    -0.38990
H     -6.70195    -0.08914     1.15810
H     -7.36316    -1.23655     0.00872
H     -6.42567    -1.83315     1.40515
C     -2.23000     2.10904     0.45145
C     -3.44647     2.87737     0.04923
O     -1.09779     2.51352     0.24357
O     -2.49419     0.95689     1.02265
H     -1.66035     0.55023     1.36654
H      0.27389     2.29145     1.20794
H     -3.43281     3.85556     0.52609
H     -3.41119     3.02566    -1.02735
C      4.65122    -0.97480    -0.23678
C      5.93023    -0.26148    -0.51458
O      3.77822    -1.13283    -1.09112
O      4.51776    -1.41194     0.98905
H      3.67217    -1.92438     1.10237
H      6.62831    -0.42154     0.29869
H      6.33717    -0.60586    -1.46162
H      5.70428     0.79927    -0.61081
