 40
-1146.2794165614596
C      0.15446    -0.41458    -1.13892
C     -1.06213    -1.00303    -1.77497
O      0.12557     0.16431    -0.06212
O      1.25932    -0.58400    -1.83858
H      2.03048    -0.19710    -1.36638
H     -1.89392    -0.31847    -1.65977
H     -0.86914    -1.22818    -2.81779
H     -1.32438    -1.91150    -1.23819
C      3.40814     0.73708     0.70383
C      4.63079     1.04745     1.49935
O      3.44099     0.47676    -0.49575
O      2.29280     0.75552     1.39495
H      1.50749     0.54183     0.82693
H      5.31380     0.20492     1.41981
H      5.13413     1.90481     1.05802
H      4.36918     1.23603     2.53443
C      6.39523     2.27704    -1.76723
C      7.41724     2.67203    -2.79579
O      6.26812     2.79217    -0.68284
O      5.63190     1.26461    -2.19853
H      4.97157     1.04935    -1.51730
H      8.00083     3.50459    -2.42135
H      8.06720     1.82597    -3.01115
H      6.92001     2.94817    -3.72355
C     -6.39008    -2.48308     1.01995
C     -7.45304    -3.54005     0.95068
O     -5.37533    -2.54365     0.33810
O     -6.64666    -1.50848     1.85995
H     -5.91012    -0.83818     1.86523
H     -8.23853    -3.33608     1.66895
H     -7.85885    -3.56355    -0.05790
H     -7.00017    -4.50949     1.14203
C     -3.61926     0.13897     1.28187
C     -2.49344     1.10855     1.44732
O     -4.68168     0.25767     1.87118
O     -3.35815    -0.84921     0.44898
H     -4.12180    -1.48568     0.40471
H     -2.15832     1.45486     0.47492
H     -2.82517     1.93730     2.06180
H     -1.64678     0.61071     1.91081
