 72
-2063.3284219411344
C      4.25046    -0.16723    -2.30428
C      5.11556     1.04784    -2.41798
O      4.58770    -1.15740    -1.68020
O      3.09516    -0.06094    -2.93207
H      2.59282    -0.91072    -2.86882
H      6.15295     0.77101    -2.26431
H      4.97754     1.52340    -3.38413
H      4.81569     1.74695    -1.63958
C     -0.37046     3.03277    -1.72133
C      0.82035     2.80467    -2.59465
O     -0.27326     3.50721    -0.59096
O     -1.51432     2.70643    -2.25572
H     -2.26426     2.84300    -1.60616
H      0.88266     3.62022    -3.31475
H      1.71322     2.78667    -1.98148
H      0.72348     1.87463    -3.14246
C     -3.34947     3.24198     0.65972
C     -4.49459     3.08637     1.60778
O     -3.42919     2.97494    -0.52763
O     -2.24129     3.68780     1.22432
H     -1.50199     3.66869     0.57560
H     -4.41894     3.82201     2.40216
H     -5.43322     3.18043     1.07131
H     -4.43457     2.09159     2.04315
C     -1.79096    -1.33641    -1.66569
C     -0.90403    -0.80875    -2.74431
O     -1.65315    -2.44672    -1.17509
O     -2.73874    -0.50379    -1.28448
H     -3.22835    -0.88212    -0.52279
H     -1.33166     0.08682    -3.17656
H      0.06820    -0.60101    -2.30495
H     -0.75032    -1.57127    -3.50380
C      1.57824    -1.39400     1.33927
C      1.01782    -2.77492     1.48900
O      2.01862    -0.72805     2.24334
O      1.54382    -0.96564     0.07109
H      1.95745    -0.08206     0.02130
H      0.57300    -2.88861     2.47329
H      0.27247    -2.97304     0.72238
H      1.83069    -3.49141     1.37231
C     -3.45602    -2.60913     1.56893
C     -4.01468    -3.02099     2.88883
O     -3.78487    -1.56776     1.00203
O     -2.56984    -3.43001     1.06711
H     -2.21321    -3.08609     0.20795
H     -5.05452    -2.71586     2.95882
H     -3.90566    -4.09153     3.02631
H     -3.44430    -2.49769     3.65500
C      2.64238     2.18632     1.09806
C      3.65540     1.97585     2.17452
O      2.59351     1.54434     0.06418
O      1.78256     3.15972     1.36883
H      1.13962     3.25033     0.64387
H      3.61411     2.78786     2.89273
H      3.43648     1.02597     2.66036
H      4.64322     1.90158     1.72466
C     -1.56088     0.20832     3.05281
C     -0.67204     1.27995     3.60431
O     -1.58503    -0.93269     3.44131
O     -2.35123     0.65829     2.06165
H     -2.85456    -0.08995     1.69375
H      0.25019     0.82538     3.95395
H     -0.46990     2.02753     2.84504
H     -1.17631     1.75774     4.44532
C      2.08135    -3.29900    -2.00178
C      1.15838    -4.45437    -1.76436
O      1.81111    -2.39174    -2.77131
O      3.20142    -3.37807    -1.31789
H      3.74838    -2.56278    -1.45671
H      1.33859    -5.20172    -2.53662
H      1.36219    -4.89721    -0.79563
H      0.12723    -4.12054    -1.83055
