 56
-1604.8082352360861
C      4.95015     0.77309    -1.96406
C      6.35706     0.38541    -2.31680
O      4.02432     0.63623    -2.75076
O      4.80694     1.25720    -0.74972
H      3.86349     1.54029    -0.58893
H      6.69205     1.00147    -3.14805
H      7.01398     0.51549    -1.46434
H      6.36526    -0.64780    -2.65464
C     -1.68842    -1.02592    -3.05454
C     -1.10961    -0.49242    -4.32845
O     -1.76427    -2.21894    -2.80438
O     -2.08371    -0.08318    -2.21783
H     -2.50617    -0.49274    -1.42372
H     -1.60735     0.42977    -4.61125
H     -0.05684    -0.27861    -4.16143
H     -1.19550    -1.23921    -5.11144
C      0.05806     1.20233     3.11456
C      1.51434     0.92427     3.32911
O     -0.32999     2.16056     2.46642
O     -0.75030     0.33631     3.68707
H     -5.04851     2.51027     0.74062
H      2.00143     0.86207     2.35813
H      1.95912     1.75564     3.87309
H      1.64096    -0.00017     3.87992
C      1.35331     1.65348    -1.04200
C     -0.04729     1.95717    -0.63665
O      2.32127     1.92643    -0.34589
O      1.46210     1.05386    -2.21056
H      2.41805     0.89622    -2.43463
H     -0.05900     2.79636     0.04667
H     -0.66761     2.13264    -1.50665
H     -0.42398     1.08660    -0.10845
C     -2.49931    -2.24230     0.37966
C     -2.47349    -2.50486     1.84752
O     -3.15491    -1.35813    -0.13734
O     -1.73010    -3.06287    -0.32957
H     -1.79164    -2.81935    -1.29840
H     -1.44028    -2.55578     2.18322
H     -2.99640    -1.70638     2.35937
H     -2.94886    -3.46355     2.05400
C     -3.49994     1.59056     1.87406
C     -4.88794     1.60376     1.31379
O     -3.18133     0.87295     2.81025
O     -2.67083     2.39738     1.24812
H     -1.75725     2.33310     1.63190
H     -1.68339     0.54273     3.43056
H     -4.99055     0.74029     0.65863
H     -5.60819     1.51364     2.12118
C      1.38570    -1.78631     0.60094
C      2.84642    -1.53578     0.82782
O      0.52548    -0.94711     0.73196
O      1.12753    -3.04908     0.25389
H      0.17306    -3.14656     0.09123
H      3.02737    -1.45448     1.89827
H      3.45260    -2.33687     0.41783
H      3.11824    -0.58506     0.38351
