 80
-2292.5906641906013
C      2.03310    -1.09192     2.56180
C      0.78142    -1.88480     2.70871
O      2.52382    -0.80160     1.47194
O      2.58741    -0.72311     3.68809
H      3.42900    -0.22489     3.51555
H      0.00534    -1.24266     3.11456
H      0.46014    -2.25603     1.74096
H      0.95070    -2.70607     3.40115
C     -2.76010     2.20440     1.34982
C     -4.00469     1.96525     0.56525
O     -2.25688     1.37732     2.10361
O     -2.24231     3.39537     1.16266
H     -1.42014     3.50503     1.69806
H     -4.37116     0.96596     0.76207
H     -4.75053     2.70658     0.84984
H     -3.78921     2.09150    -0.49182
C     -1.28766    -6.00160    -1.36538
C     -2.01064    -7.30615    -1.19144
O     -1.04650    -5.54355    -2.47122
O     -0.95287    -5.41169    -0.23650
H     -0.43476    -4.57908    -0.40685
H     -1.43536    -8.09064    -1.67676
H     -2.14816    -7.53339    -0.14031
H     -2.97015    -7.24517    -1.69871
C      0.76147     1.91872    -0.18644
C      0.60240     3.14971    -1.02422
O     -0.09353     1.08472    -0.03739
O      1.96792     1.83639     0.39644
H      2.05371     0.96904     0.82282
H      1.49326     3.34226    -1.61509
H     -0.25387     3.02058    -1.67530
H      0.41736     4.00368    -0.37461
C      0.71776    -2.79492    -1.83882
C      1.61412    -1.61286    -2.01798
O      0.40557    -3.23457    -0.74055
O      0.29527    -3.30753    -2.96884
H     -0.22333    -4.14003    -2.80291
H      2.51691    -1.92467    -2.54005
H      1.10486    -0.87900    -2.63699
H      1.86562    -1.19490    -1.05126
C     -3.36802    -1.96830     1.42468
C     -3.41347    -3.46373     1.58797
O     -4.25434    -1.30864     0.94065
O     -2.21859    -1.44402     1.87377
H     -2.25371    -0.47279     1.80531
H     -3.40215    -3.71622     2.64766
H     -4.31980    -3.84639     1.13001
H     -2.53976    -3.91533     1.13049
C     -0.86077     3.72491    -4.71962
C     -0.47884     5.02162    -5.37156
O     -1.95527     3.56041    -4.20034
O      0.07964     2.80633    -4.74411
H     -0.24245     1.96739    -4.31899
H     -1.21074     5.26143    -6.13868
H     -0.51840     5.81215    -4.62550
H      0.51544     4.95262    -5.79772
C      0.60131     2.73854     3.17080
C      1.96688     2.93284     3.75022
O      0.00324     3.62405     2.58582
O      0.10953     1.52965     3.34632
H     -0.78257     1.45288     2.92861
H      2.61331     3.36053     2.98875
H      1.90265     3.64106     4.57534
H      2.37074     1.98905     4.09601
C      5.42887     0.60071     2.11041
C      6.79056     1.21674     2.00706
O      4.77434     0.63244     3.14298
O      5.01004     0.02888     1.00195
H      4.10054    -0.32943     1.12601
H      7.11839     1.23933     0.97465
H      6.76204     2.21792     2.42700
H      7.48469     0.62944     2.60396
C     -1.79708     0.58668    -2.79414
C     -2.01550    -0.60100    -1.91753
O     -0.83745     0.67378    -3.54694
O     -2.70690     1.53087    -2.69612
H     -2.48917     2.28523    -3.30662
H     -1.18258    -0.67661    -1.22413
H     -2.93953    -0.49211    -1.36054
H     -2.03067    -1.49935    -2.52701
