 64
-1834.05406069126
C     -1.86602    -1.62745     0.82687
C     -0.86612    -1.74075     1.92309
O     -1.93521    -2.40619    -0.11782
O     -2.69029    -0.60433     0.95920
H     -3.28830    -0.52273     0.17825
H     -1.21810    -2.48223     2.64031
H      0.06724    -2.11041     1.51222
H     -0.73601    -0.77957     2.40412
C      5.04539     0.22214     3.06525
C      5.73539    -0.56264     4.13508
O      5.62662     0.97250     2.30141
O      3.73587     0.03171     3.03359
H      3.34007     0.55571     2.31239
H      5.08457    -1.34399     4.51056
H      6.65712    -0.97652     3.73826
H      5.99920     0.11452     4.94473
C     -4.12157    -0.89848    -2.31899
C     -4.82194    -0.51756    -3.57697
O     -4.20538    -0.25543    -1.27775
O     -3.38088    -1.97676    -2.42577
H     -2.90553    -2.15825    -1.58643
H     -4.13810     0.11739    -4.13934
H     -5.05252    -1.40156    -4.16283
H     -5.71478     0.05072    -3.33932
C      3.22330     2.48860     0.36218
C      2.58610     3.45379    -0.56747
O      2.60737     1.56846     0.91531
O      4.50241     2.67873     0.55987
H      4.88548     2.01893     1.19877
H      3.32882     4.15030    -0.94208
H      2.12805     2.89104    -1.37930
H      1.78770     3.97457    -0.04176
C      0.02843    -5.37640     0.97875
C      0.57345    -6.77187     0.86175
O      0.19776    -4.66128     1.93536
O     -0.67078    -5.01078    -0.10560
H     -1.00129    -4.10589     0.01689
H      0.26441    -7.23166    -0.07025
H      1.65887    -6.72925     0.92067
H      0.22352    -7.35604     1.70972
C     -2.22212     2.33819    -2.55005
C     -1.32443     3.52351    -2.68526
O     -2.25470     1.40688    -3.32107
O     -3.00391     2.40898    -1.46234
H     -3.51215     1.58515    -1.40130
H     -1.18634     3.99335    -1.71749
H     -0.37257     3.19837    -3.09425
H     -1.77964     4.23314    -3.37791
C     -0.80367     2.93653     1.53935
C     -2.21476     2.93141     2.03916
O     -0.30791     3.80844     0.86735
O     -0.12323     1.84160     1.91799
H      0.77450     1.90634     1.55953
H     -2.53587     1.91646     2.24111
H     -2.26556     3.51714     2.95759
H     -2.85400     3.39430     1.29459
C      0.92631     0.01166    -2.02233
C      0.11455    -0.92514    -2.86275
O      1.34852     1.08208    -2.39190
O      1.13439    -0.45207    -0.77879
H      1.63551     0.21727    -0.29111
H     -0.12549    -1.82207    -2.30222
H     -0.79561    -0.41026    -3.16063
H      0.67468    -1.17049    -3.76379
