 40
-1146.27749769676
C      0.09507    -2.41710    -2.87307
C     -0.45036    -3.79987    -2.98930
O     -0.53438    -1.40318    -3.12062
O      1.35549    -2.38334    -2.45045
H      1.61630    -1.45649    -2.33630
H     -1.04724    -3.99909    -2.10078
H     -1.10150    -3.86125    -3.85689
H      0.36044    -4.51688    -3.05281
C      1.73581     0.36985     1.37650
C      1.90356    -0.10852     2.77864
O      0.85677     1.15311     1.03034
O      2.61782    -0.12647     0.53668
H      2.41881     0.13882    -0.39103
H      1.10273    -0.80759     3.01076
H      2.86680    -0.59236     2.89955
H      1.78973     0.72718     3.46144
C      1.28959     1.44744    -2.37782
C      1.08593     1.85016    -3.80031
O      2.01311     0.51481    -2.04509
O      0.59864     2.16225    -1.52154
H      0.71276     1.82581    -0.60493
H      0.80370     2.89502    -3.85970
H      1.98645     1.64609    -4.36910
H      0.27576     1.24118    -4.19865
C     -1.92208    -1.29845    -0.04963
C     -2.44276    -0.80996     1.27113
O     -1.68232    -2.45723    -0.29317
O     -1.73392    -0.30072    -0.91991
H     -1.37255    -0.66797    -1.74961
H     -1.62974    -0.81991     1.99501
H     -2.82232     0.20117     1.18640
H     -3.21304    -1.48452     1.63531
C     -1.28459     1.63581     4.02176
C     -2.33474     2.30645     4.85931
O     -0.73880     0.59481     4.29429
O     -1.02495     2.33370     2.90596
H     -0.33890     1.87146     2.39633
H     -1.99704     3.29901     5.15171
H     -3.24501     2.42939     4.27513
H     -2.53385     1.70532     5.73881
