 80
-2292.5916870338683
C      2.09509    -0.45974     3.54808
C      1.14015    -0.44185     4.69170
O      2.17607     0.46272     2.73679
O      2.83851    -1.53027     3.48356
H      3.46468    -1.49402     2.71499
H      0.75587     0.56299     4.81783
H      0.31571    -1.10676     4.44760
H      1.62409    -0.80561     5.59577
C     -2.10902     2.56650     1.32473
C     -3.34633     2.07884     0.65001
O     -1.86799     2.37082     2.51311
O     -1.31176     3.25548     0.54830
H     -0.49533     3.53519     1.04595
H     -4.07394     2.89215     0.65583
H     -3.12466     1.81729    -0.38041
H     -3.75255     1.23377     1.19381
C      0.24479    -2.14456    -3.98660
C     -0.40732    -1.62093    -5.22426
O     -0.02598    -3.23394    -3.51179
O      1.10599    -1.30573    -3.44351
H      1.53907    -1.72392    -2.65311
H     -0.71096    -2.43978    -5.86598
H     -1.30060    -1.07755    -4.92805
H      0.24784    -0.93295    -5.74340
C     -0.51999    -1.03929     0.89742
C     -1.26894    -1.41829    -0.33827
O     -0.25640    -1.77988     1.80730
O     -0.12426     0.24644     0.88860
H      0.47776     0.42014     1.62853
H     -1.46334    -2.48316    -0.33520
H     -2.20803    -0.87034    -0.38880
H     -0.69334    -1.14779    -1.21594
C      1.79056    -3.49111    -0.76283
C      2.36415    -3.97651     0.52739
O      2.16844    -2.47128    -1.32404
O      0.82741    -4.25275    -1.22770
H      0.50016    -3.90371    -2.09554
H      1.65581    -3.74393     1.32097
H      2.49619    -5.05590     0.49128
H      3.30189    -3.47224     0.72340
C     -2.78777    -0.87041     3.46003
C     -2.85105    -2.19573     4.15705
O     -3.36713    -0.60537     2.43437
O     -1.99117     0.00567     4.08698
H     -1.97547     0.82124     3.56123
H     -2.89183    -2.06247     5.23555
H     -3.71568    -2.74692     3.80278
H     -1.95016    -2.75814     3.91438
C     -3.77322     0.63142    -5.26304
C     -4.97609     0.39042    -6.12620
O     -2.77025     1.18534    -5.69134
O     -3.89362     0.19038    -4.03095
H     -3.08225     0.38895    -3.49776
H     -5.35264     1.34729    -6.47919
H     -4.67254    -0.18101    -6.99977
H     -5.74290    -0.13784    -5.57175
C      1.10524     3.61524     3.07155
C      2.43603     3.93635     3.67256
O      0.80182     3.91934     1.93039
O      0.29256     2.96694     3.88316
H     -0.55558     2.77347     3.41843
H      2.97537     4.61876     3.02563
H      2.30543     4.36662     4.66218
H      2.99846     3.01086     3.77400
C      4.57939    -0.55339     0.58761
C      5.39274    -0.68674    -0.66077
O      4.53556    -1.42093     1.44529
O      3.89696     0.57119     0.66306
H      3.29949     0.56545     1.44451
H      6.22308    -1.36279    -0.48555
H      4.74716    -1.11385    -1.42859
H      5.73636     0.28631    -0.99673
C     -0.79534     1.44394    -3.01466
C      0.28353     1.90473    -2.09418
O     -1.72848     0.74261    -2.64374
O     -0.64435     1.84637    -4.25258
H     -1.44306     1.62441    -4.80038
H      1.25287     1.64871    -2.51121
H      0.22312     2.98532    -1.97479
H      0.14222     1.44084    -1.12808
