 80
-2292.592594557832
C      0.56112    -1.55317     0.84645
C     -0.72123    -2.25937     1.10648
O      1.46341    -2.02272     0.16757
O      0.65821    -0.36442     1.39854
H      1.54265     0.02444     1.22049
H     -0.51513    -3.28114     1.41478
H     -1.28324    -1.72993     1.86772
H     -1.28447    -2.29369     0.17508
C      1.65043     0.29235    -2.26003
C      0.98288    -0.94566    -2.75020
O      1.08215     1.16016    -1.60495
O      2.91600     0.39011    -2.58341
H      3.28066     1.25219    -2.27160
H     -0.07186    -0.91175    -2.52116
H      1.12604    -1.05935    -3.82091
H      1.41397    -1.81346    -2.26137
C     -2.13502    -3.50341    -2.99221
C     -3.23846    -2.94991    -3.83827
O     -0.95787    -3.43350    -3.30894
O     -2.55889    -4.06213    -1.87815
H     -1.79113    -4.40263    -1.35794
H     -4.13509    -3.54946    -3.72152
H     -3.44630    -1.94085    -3.48618
H     -2.92345    -2.90177    -4.87495
C      3.28006     3.65199    -1.27852
C      3.91238     4.99529    -1.11432
O      3.87295     2.69388    -1.74197
O      2.03071     3.59633    -0.86474
H      1.65730     2.70375    -1.02665
H      3.16617     5.77666    -1.21846
H      4.34404     5.05542    -0.11667
H      4.70736     5.12092    -1.84326
C      0.71861    -4.95503    -0.90573
C      1.83615    -5.50067    -0.07201
O     -0.43938    -4.92461    -0.51988
O      1.10947    -4.50253    -2.07678
H      0.34018    -4.10487    -2.56134
H      1.43323    -6.08084     0.75074
H      2.49895    -6.10263    -0.68704
H      2.40770    -4.66222     0.32044
C     -2.38414     0.40115    -1.03930
C     -3.83178     0.70630    -0.82427
O     -1.96220    -0.67582    -1.39189
O     -1.60032     1.44297    -0.76929
H     -0.68036     1.24393    -1.02211
H     -4.02297     1.76904    -0.91893
H     -4.44202     0.13785    -1.51763
H     -4.10450     0.39683     0.18117
C     -5.92683     0.12683     2.57788
C     -7.28264    -0.51177     2.66660
O     -5.78773     1.30246     2.27011
O     -4.92779    -0.68401     2.84421
H     -4.05606    -0.20701     2.78974
H     -7.78132    -0.41068     1.70574
H     -7.19368    -1.55632     2.94165
H     -7.87769     0.02734     3.39954
C      2.61869     3.78040     2.49431
C      2.60012     5.27589     2.32894
O      1.83128     3.14848     3.14478
O      3.63971     3.21585     1.81120
H      3.49305     2.25627     1.79263
H      2.00011     5.72752     3.11382
H      3.61142     5.67406     2.35118
H      2.15492     5.52162     1.36521
C      4.07081    -0.08124     0.46529
C      5.44029     0.49994     0.34020
O      3.13475     0.52227     0.98020
O      3.95190    -1.27263    -0.05292
H      3.01622    -1.59341     0.02728
H      6.19665    -0.27792     0.39875
H      5.50193     0.98339    -0.63333
H      5.60196     1.24842     1.10864
C     -2.49728     1.82077     2.53765
C     -1.16354     2.47569     2.64406
O     -2.66383     0.61643     2.68731
O     -3.48434     2.64171     2.24701
H     -4.35443     2.16561     2.27221
H     -0.43575     1.79557     3.06152
H     -0.83849     2.77553     1.65194
H     -1.23362     3.37316     3.25342
