 80
-2292.580664154832
C      2.44622    -0.61860     3.29878
C      1.34963    -0.42271     4.29220
O      2.48890    -0.06325     2.21116
O      3.38072    -1.45846     3.70435
H      4.08352    -1.52897     3.02902
H      1.57176    -0.94877     5.21568
H      1.21190     0.63949     4.47511
H      0.43378    -0.80618     3.85042
C     -2.82410     2.63010     1.29616
C     -4.19027     2.12362     0.97759
O     -2.24161     2.40782     2.35300
O     -2.30374     3.35619     0.33599
H     -1.33915     3.54539     0.48845
H     -4.20793     1.81198    -0.06351
H     -4.43880     1.30062     1.63412
H     -4.89884     2.94139     1.11053
C      0.10872    -1.97321    -3.32248
C     -0.95957    -1.40189    -4.19819
O      0.25949    -3.17033    -3.15767
O      0.85947    -1.05309    -2.74466
H      1.50710    -1.47459    -2.12870
H     -1.35118    -2.16226    -4.86584
H     -1.77267    -1.03855    -3.57542
H     -0.56766    -0.56213    -4.76147
C     -0.36459    -0.87480     0.81582
C     -1.35791    -1.15768    -0.26418
O     -0.17980    -1.58958     1.76989
O      0.34026     0.24328     0.61701
H      1.12691     0.21514     1.20362
H     -1.01331    -2.04056    -0.79772
H     -2.32365    -1.38459     0.17240
H     -1.43003    -0.31944    -0.94980
C      2.13649    -3.34621    -0.50075
C      2.69693    -3.69847     0.84171
O      2.48010    -2.34507    -1.11658
O      1.23588    -4.19380    -0.93691
H      0.87353    -3.88797    -1.80722
H      2.96241    -4.75262     0.88101
H      3.55855    -3.07887     1.04765
H      1.93921    -3.50905     1.59862
C     -2.82559    -0.86677     3.34096
C     -2.74393    -2.19999     4.01614
O     -3.29879    -0.67975     2.24592
O     -2.28820     0.11109     4.08282
H     -2.31649     0.92912     3.56354
H     -1.77320    -2.63981     3.79141
H     -2.83034    -2.08748     5.09315
H     -3.51635    -2.85628     3.62771
C     -4.12132     0.71686    -5.10090
C     -5.15692     0.19482    -6.05200
O     -3.19051     1.41436    -5.47608
O     -4.29252     0.34289    -3.85167
H     -3.60408     0.75292    -3.26849
H     -4.65795    -0.37186    -6.83417
H     -5.87436    -0.42656    -5.52944
H     -5.65525     1.03607    -6.52693
C      0.87389     3.46493     1.84981
C      2.34521     3.70634     1.98872
O      0.22797     3.82893     0.88144
O      0.34651     2.82385     2.87532
H     -0.61600     2.67726     2.72412
H      2.84231     2.75297     2.14604
H      2.72508     4.19233     1.09697
H      2.52862     4.33207     2.85961
C      5.83724    -1.08831     0.83920
C      4.94097    -0.32831    -0.07954
O      5.48472    -1.69481     1.83066
O      7.12451    -1.06930     0.46669
H      7.61353    -1.59487     1.11236
H      4.50006    -1.02239    -0.79249
H      4.13049     0.09846     0.50269
H      5.49610     0.43441    -0.61756
C     -1.36523     1.92353    -2.76212
C     -0.24593     2.25349    -1.83459
O     -2.41076     1.40501    -2.39319
O     -1.12583     2.22002    -4.01962
H     -1.91107     1.98438    -4.58307
H     -0.15327     3.33214    -1.73450
H     -0.44715     1.83461    -0.86154
H      0.68275     1.85621    -2.23139
