 56
-1604.804462773444
C     -3.14570     0.14732     1.90013
C     -3.94110    -0.90320     2.61715
O     -3.60453     1.15439     1.42338
O     -1.84276    -0.17449     1.81863
H     -1.37557     0.55617     1.38441
H     -4.12153    -1.72989     1.93181
H     -3.39028    -1.27921     3.47612
H     -4.89072    -0.48143     2.93078
C      1.78822    -2.05408     1.31746
C      0.56407    -2.46829     2.08089
O      2.18960    -2.60441     0.31752
O      2.38563    -0.99015     1.86530
H      3.20600    -0.79651     1.37040
H      0.87412    -3.05373     2.94822
H      0.02033    -1.59713     2.42831
H     -0.06511    -3.08028     1.44453
C     -0.55017     2.53440    -0.34609
C     -1.95024     2.96361    -0.60074
O     -0.19724     1.90076     0.64691
O      0.29910     2.88698    -1.28583
H      4.90617     3.53637     0.41144
H     -1.96872     3.78609    -1.30736
H     -2.48602     2.10969    -1.01638
H     -2.43807     3.22464     0.33147
C     -1.01169    -0.91714    -1.40543
C      0.45543    -0.71596    -1.57100
O     -1.83128    -0.06184    -1.71372
O     -1.35118    -2.07626    -0.89760
H     -2.33983    -2.15077    -0.83344
H      0.94016    -1.64643    -1.84005
H      0.63051     0.05669    -2.30882
H      0.87829    -0.38467    -0.62384
C     -4.75545    -1.52727    -1.43589
C     -6.21310    -1.86233    -1.53686
O     -3.98187    -2.20670    -0.77389
O     -4.39628    -0.44997    -2.09352
H     -3.42496    -0.28529    -1.97909
H     -6.32381    -2.89286    -1.86561
H     -6.65120    -1.78652    -0.54386
H     -6.71294    -1.18541    -2.21938
C      3.06699     2.52100     0.72283
C      4.42463     2.94204     1.18092
O      2.80931     2.25962    -0.45037
O      2.18731     2.41710     1.68464
H      1.30518     2.14989     1.32573
H      1.21826     2.63910    -1.03249
H      4.35676     3.48682     2.11540
H      5.01104     2.03812     1.33715
C      4.49192    -0.91395    -0.82225
C      4.94923    -2.24282    -1.31855
O      4.59035    -0.53150     0.33061
O      3.92156    -0.16555    -1.75926
H      3.63410     0.65916    -1.33795
H      5.87530    -2.51978    -0.82330
H      4.18714    -2.97281    -1.04789
H      5.06708    -2.22216    -2.39612
