 80
-2292.5826629860085
C      5.05943    -1.50642     3.98408
C      6.22178    -1.44781     4.93307
O      4.92197    -2.42104     3.18448
O      4.22017    -0.50126     4.09495
H      3.47100    -0.59294     3.45117
H      6.20969    -2.33665     5.55923
H      7.14600    -1.46520     4.36080
H      6.16885    -0.55345     5.54327
C     -6.06499     3.71184     2.36126
C     -6.93270     4.67911     3.11230
O     -5.40656     4.04440     1.38842
O     -6.08554     2.48543     2.84470
H     -5.47697     1.89876     2.33658
H     -7.42422     4.18247     3.94061
H     -6.31738     5.50038     3.47057
H     -7.66737     5.09709     2.42891
C     -0.04259    -2.63363    -3.05403
C     -1.15980    -1.85280    -3.66412
O      1.13444    -2.38584    -3.28954
O     -0.42781    -3.59802    -2.25189
H      0.34792    -4.10529    -1.89063
H     -2.11564    -2.23210    -3.31967
H     -1.07218    -0.80134    -3.40444
H     -1.08932    -1.93219    -4.74608
C      1.52127     1.98612    -0.03835
C      1.40516     2.59289     1.31986
O      2.56941     1.56494    -0.49225
O      0.37942     1.94678    -0.70794
H      0.52710     1.62479    -1.62084
H      2.05791     2.05458     2.00150
H      1.73376     3.63099     1.26462
H      0.37433     2.55018     1.65263
C      2.84867    -4.52544    -1.36212
C      3.97621    -5.25007    -0.69957
O      1.67852    -4.85092    -1.23763
O      3.22934    -3.48978    -2.08283
H      2.45198    -3.07754    -2.53183
H      4.35479    -4.62591     0.10660
H      3.61900    -6.19041    -0.29455
H      4.78253    -5.41543    -1.40889
C     -1.80323     0.12765     3.54174
C     -0.90590    -0.40033     4.62954
O     -1.40616     0.54406     2.47868
O     -3.09658     0.08516     3.88217
H     -3.63010     0.41895     3.14126
H     -0.91783     0.29168     5.47131
H     -1.28267    -1.35913     4.98067
H      0.10467    -0.50244     4.24945
C      2.22716     0.65647    -3.62785
C      2.43374     0.09850    -4.99581
O      1.14836     1.09755    -3.24926
O      3.28760     0.61914    -2.86050
H      3.07412     0.99408    -1.96829
H      1.97426    -0.88746    -5.02183
H      1.93552     0.72392    -5.73090
H      3.49428     0.01353    -5.20508
C     -3.71563     1.26071     0.49827
C     -2.80045     0.33460    -0.22342
O     -4.37519     0.93907     1.48342
O     -3.78937     2.45839    -0.03248
H     -4.39015     3.05398     0.49005
H     -3.29231     0.00919    -1.13662
H     -1.89931     0.86066    -0.51505
H     -2.56668    -0.51034     0.41070
C      2.17569    -1.61266     1.47787
C      1.11060    -1.56815     0.43455
O      2.22534    -0.81086     2.39635
O      3.04534    -2.58416     1.31840
H      3.75014    -2.54746     2.02058
H      0.26901    -1.00008     0.80910
H      1.51426    -1.07135    -0.44795
H      0.81348    -2.57321     0.15744
C     -2.12270     2.22817    -3.65362
C     -3.29107     3.16956    -3.69657
O     -2.16537     1.12460    -3.16508
O     -1.01533     2.74243    -4.20342
H     -0.28256     2.12689    -4.04284
H     -4.18053     2.61953    -3.99023
H     -3.45898     3.55949    -2.69433
H     -3.09401     3.98812    -4.38095
