 64
-1834.0721291828418
C     -2.03218    -1.74541    -0.38650
C     -1.55377    -0.70032    -1.34156
O     -2.35206    -2.86829    -0.75150
O     -2.06183    -1.35963     0.86825
H     -2.35599    -2.10547     1.45492
H     -2.09875    -0.77662    -2.27954
H     -1.64642     0.29147    -0.91357
H     -0.50670    -0.90677    -1.55398
C      0.99097     3.45211    -1.58411
C      0.44226     4.71221    -0.99663
O      0.69871     3.06552    -2.70233
O      1.79687     2.78801    -0.77063
H      2.21264     2.04389    -1.26948
H     -0.54298     4.49535    -0.59332
H      1.07240     5.06758    -0.19149
H      0.32396     5.46365    -1.76989
C      1.49146    -3.91590    -0.12936
C      0.59048    -5.10645    -0.24925
O      2.64950    -3.90808    -0.50997
O      0.90697    -2.86969     0.42130
H      1.55922    -2.12522     0.50272
H      1.13714    -5.94393    -0.66891
H      0.19794    -5.36288     0.73048
H     -0.25543    -4.85388    -0.88399
C      2.05600     0.13867    -2.95049
C      2.37612    -1.30036    -3.21354
O      2.81779     0.87773    -2.34229
O      0.88447     0.52372    -3.40051
H      0.75532     1.48549    -3.18926
H      3.45136    -1.41992    -3.26287
H      2.01734    -1.89351    -2.37521
H      1.89530    -1.65674    -4.11768
C     -3.02230    -4.54026     2.01251
C     -3.41803    -5.62657     2.97126
O     -2.75257    -3.40986     2.39042
O     -2.98154    -4.91428     0.75206
H     -2.75862    -4.13938     0.16577
H     -2.61325    -5.77360     3.68752
H     -4.29357    -5.30229     3.52835
H     -3.62544    -6.54672     2.43730
C     -3.03649     5.16129     1.00330
C     -4.06292     6.22792     0.75880
O     -2.01422     5.38523     1.63780
O     -3.32698     3.99613     0.47143
H     -2.62443     3.32340     0.67881
H     -4.39457     6.62343     1.71539
H     -3.59548     7.04453     0.21387
H     -4.90067     5.82856     0.19926
C     -0.52102     2.41988     1.83862
C      0.33634     1.28870     2.30089
O     -1.41946     2.27613     1.02120
O     -0.21325     3.58356     2.36336
H     -0.88898     4.26759     2.11237
H      1.25336     1.28823     1.71337
H      0.59764     1.42105     3.34800
H     -0.18667     0.35443     2.13822
C      3.82228    -0.89735     0.17706
C      4.67832     0.31960     0.27426
O      2.65804    -0.93510     0.54452
O      4.43064    -1.92868    -0.36801
H      3.81429    -2.70428    -0.39423
H      5.68956     0.04781     0.56072
H      4.70540     0.78957    -0.70716
H      4.24049     1.01368     0.98230
