 72
-2063.333014390908
C      5.16382    -1.12484    -1.50113
C      6.65671    -1.09970    -1.34331
O      4.61636    -1.38151    -2.56284
O      4.50785    -0.83557    -0.39689
H      3.53031    -0.90652    -0.54747
H      7.12920    -1.21533    -2.31166
H      6.95943    -0.16293    -0.88170
H      6.96494    -1.90771    -0.68266
C     -1.87430     2.84873    -0.19802
C     -0.81579     3.66065     0.47239
O     -1.80178     2.49738    -1.37378
O     -2.89482     2.54043     0.56547
H     -3.55892     1.99193     0.06720
H     -0.75074     4.62697    -0.02420
H     -1.05480     3.77596     1.52112
H      0.15219     3.18026     0.35942
C     -4.25094     0.27387    -1.71134
C     -5.13751    -0.79856    -2.26272
O     -4.58266     1.00903    -0.79380
O     -3.07748     0.34713    -2.30163
H     -2.57349     1.12744    -1.96614
H     -6.13600    -0.67402    -1.86265
H     -5.15179    -0.75105    -3.34861
H     -4.74162    -1.76730    -1.96887
C     -4.26409    -2.39233     1.32174
C     -5.68902    -1.94132     1.25174
O     -3.76816    -2.88399     2.31864
O     -3.59282    -2.19607     0.20077
H     -2.64376    -2.46032     0.32378
H     -6.21224    -2.22189     2.15903
H     -5.71513    -0.86157     1.12287
H     -6.16912    -2.38895     0.38591
C      1.80933     2.45705    -2.17738
C      3.00232     2.02354    -2.97535
O      1.86444     2.93803    -1.07037
O      0.66172     2.21858    -2.81891
H     -0.08207     2.49601    -2.25776
H      3.88250     2.56990    -2.65426
H      3.18006     0.96451    -2.79967
H      2.83162     2.16754    -4.03871
C     -0.52869    -3.18883     1.63657
C      0.95219    -3.35873     1.73541
O     -1.08579    -2.83127     0.60594
O     -1.18580    -3.44434     2.74634
H     -2.15436    -3.31213     2.60218
H      1.22016    -3.74723     2.71200
H      1.29420    -4.02798     0.95074
H      1.41890    -2.39029     1.57355
C      2.96659     2.14286     1.88105
C      4.18635     2.59817     1.14797
O      2.77016     0.97599     2.17978
O      2.13060     3.11620     2.18149
H      1.28661     2.73926     2.51680
H      3.87170     2.98998     0.18504
H      4.66394     3.40008     1.70849
H      4.86313     1.76177     1.01937
C     -0.36571     0.64203     2.87769
C     -1.74828     0.08822     3.03520
O     -0.12253     1.83409     2.94387
O      0.54664    -0.27766     2.64310
H      1.43122     0.15653     2.47797
H     -2.46033     0.89561     3.14920
H     -1.99653    -0.49730     2.15500
H     -1.78428    -0.57981     3.89238
C      1.36821    -1.35971    -1.91042
C     -0.11803    -1.43816    -2.01843
O      1.94257    -0.97872    -0.90195
O      2.01028    -1.72604    -2.99864
H      2.98954    -1.64727    -2.86122
H     -0.45410    -0.80574    -2.83457
H     -0.41661    -2.46207    -2.22806
H     -0.55705    -1.11515    -1.08543
