 48
-1375.5426985221222
C     -1.52019    -2.63239     2.45468
C     -2.55911    -3.22810     3.34673
O     -1.72476    -1.73536     1.65657
O     -0.32783    -3.19513     2.59412
H      0.29751    -2.79000     1.96120
H     -2.08895    -3.75719     4.16852
H     -3.21696    -2.44508     3.71274
H     -3.14793    -3.92391     2.75125
C      1.39247    -2.73133    -0.27742
C      0.50902    -3.93252    -0.38689
O      1.59706    -2.17235     0.80119
O      1.90144    -2.31175    -1.40018
H      2.52497    -1.54150    -1.26005
H     -0.52889    -3.60902    -0.31413
H      0.65687    -4.44146    -1.33250
H      0.69468    -4.59828     0.44882
C     -0.03880     2.24345    -0.71881
C     -0.09646     0.74874    -0.79202
O      1.00088     2.86507    -0.90151
O     -1.18437     2.81589    -0.44278
H     -1.09637     3.80490    -0.40950
H     -1.12189     0.40092    -0.79269
H      0.43310     0.41294    -1.67854
H      0.42396     0.34043     0.06989
C      0.08124     6.08727    -0.62207
C      0.14170     7.58730    -0.60162
O     -0.94903     5.47921    -0.37640
O      1.22263     5.50830    -0.92576
H      1.13222     4.51782    -0.92646
H     -0.20307     7.94130     0.36660
H      1.15121     7.92944    -0.79750
H     -0.54300     7.97534    -1.35202
C      3.63502     0.40011    -0.03989
C      4.45354     1.64697     0.01437
O      3.49566    -0.26410    -1.05520
O      3.04229     0.10275     1.10131
H      2.52273    -0.72861     1.01123
H      3.79057     2.48797    -0.18629
H      4.88241     1.76975     1.00397
H      5.22273     1.61425    -0.74968
C     -3.53498    -3.44787    -0.52884
C     -4.47144    -3.81836    -1.64898
O     -3.08639    -4.23690     0.26965
O     -3.25307    -2.14078    -0.53552
H     -2.68126    -1.93173     0.23271
H     -4.05871    -3.48921    -2.60061
H     -4.62419    -4.89197    -1.65584
H     -5.42467    -3.31067    -1.51152
