 48
-1375.5353704177078
C     -0.43786    -1.49211     2.69443
C      0.69834    -2.41650     3.02278
O     -1.24463    -1.05839     3.47641
O     -0.46204    -1.18323     1.38129
H     -1.22066    -0.60101     1.22548
H      1.63117    -2.03038     2.61592
H      0.76915    -2.53010     4.09985
H      0.51273    -3.38873     2.56624
C      6.49418    -1.64630     0.34896
C      7.88645    -2.05261     0.73610
O      6.25142    -1.12073    -0.72751
O      5.58551    -1.90578     1.26190
H      4.68176    -1.61790     0.95887
H      7.88914    -2.50353     1.72148
H      8.26825    -2.75038    -0.00500
H      8.52682    -1.17418     0.71636
C     -0.58699     2.42592    -1.95805
C     -0.00716     3.05982    -3.18811
O     -0.46300     2.85030    -0.83554
O     -1.27094     1.30752    -2.23719
H     -1.65629     0.98747    -1.40819
H     -0.78963     3.23648    -3.92395
H      0.47583     3.99484    -2.92529
H      0.72223     2.38952    -3.64187
C     -2.85372     1.58970     0.93841
C     -1.92310     2.22464     1.91091
O     -2.57131     0.55568     0.32141
O     -3.98971     2.20476     0.77239
H     -4.61464     1.70068     0.17689
H     -2.41212     3.05753     2.40474
H     -1.59982     1.47519     2.62977
H     -1.05350     2.56891     1.35239
C      2.93858    -0.56900    -0.59339
C      1.55306    -0.11995    -0.93078
O      3.19280    -1.14723     0.45601
O      3.83979    -0.29055    -1.50502
H      4.74084    -0.60131    -1.22087
H      0.86211    -0.94054    -0.78339
H      1.27409     0.66935    -0.23840
H      1.50884     0.24608    -1.94691
C     -5.56945    -0.21467    -1.22223
C     -6.65084    -0.93408    -1.96635
O     -5.72015     0.90343    -0.75679
O     -4.44628    -0.90034    -1.11088
H     -3.77889    -0.38993    -0.60598
H     -7.08575    -0.26362    -2.70176
H     -6.25670    -1.82641    -2.43854
H     -7.43562    -1.20198    -1.26256
