 80
-2292.583018094494
C     -0.94484     4.53237     0.52235
C     -2.36187     4.80518     0.14177
O     -0.51942     4.71565     1.65230
O     -0.20240     4.07424    -0.46225
H      0.71973     3.91672    -0.15387
H     -2.45773     4.91192    -0.93319
H     -2.95919     3.96264     0.48601
H     -2.70850     5.69196     0.66066
C     -3.25363     1.10495     1.54831
C     -3.57934    -0.21234     0.92694
O     -2.26702     1.76416     1.27360
O     -4.15177     1.50119     2.43981
H     -3.90270     2.37699     2.79930
H     -4.50470    -0.60796     1.33172
H     -3.65344    -0.09436    -0.15154
H     -2.74181    -0.87693     1.11864
C     -0.12888    -5.67022    -4.29384
C      0.49333    -6.03440    -5.60798
O      0.08893    -6.30142    -3.27131
O     -0.94031    -4.63473    -4.35539
H     -1.24419    -4.38809    -3.45507
H      1.53673    -6.29274    -5.45530
H     -0.01370    -6.91561    -5.99704
H      0.39583    -5.21832    -6.31464
C      2.09878    -3.74136    -1.37497
C      2.99181    -4.94577    -1.34418
O      1.75831    -3.11099    -0.40301
O      1.68585    -3.45663    -2.61066
H      1.10284    -2.67158    -2.57825
H      2.39690    -5.82457    -1.58841
H      3.77813    -4.85728    -2.09049
H      3.42305    -5.06613    -0.35605
C     -1.14304    -4.32612    -0.83916
C     -1.27899    -3.70146     0.50664
O     -1.59123    -3.81328    -1.86289
O     -0.51166    -5.46987    -0.84492
H     -0.34962    -5.80119    -1.76679
H     -0.31084    -3.31515     0.80903
H     -1.97415    -2.87610     0.45047
H     -1.61013    -4.43502     1.23709
C      0.48611    -0.18624     1.54097
C      1.82970    -0.81971     1.68290
O     -0.56001    -0.78767     1.50382
O      0.54295     1.15507     1.44227
H     -0.36863     1.49916     1.42552
H      1.71673    -1.84233     2.02125
H      2.32776    -0.83469     0.72207
H      2.44899    -0.25598     2.37426
C      3.63851     0.73333    -0.98912
C      3.93804    -0.35922    -1.97545
O      4.10113     0.79781     0.12489
O      2.77524     1.63311    -1.47951
H      2.62014     2.30850    -0.79889
H      4.04279     0.05444    -2.97496
H      4.84300    -0.87731    -1.67620
H      3.11366    -1.07215    -1.98830
C     -2.67141     4.27133     4.25565
C     -1.57121     3.32985     4.62393
O     -3.55137     4.04769     3.45062
O     -2.60467     5.44044     4.90492
H     -3.34869     5.97555     4.60034
H     -1.33349     3.40124     5.68270
H     -1.86669     2.31859     4.36975
H     -0.68234     3.59367     4.05132
C      2.63906     3.68314     1.67211
C      3.99279     3.25300     2.12913
O      2.29909     3.67682     0.49343
O      1.84092     4.08512     2.63364
H      0.95416     4.34212     2.27111
H      4.74377     3.78307     1.54899
H      4.11697     3.44156     3.18975
H      4.11696     2.19528     1.90384
C     -0.73212    -0.49451    -2.13284
C     -0.77540     0.99969    -2.17137
O      0.23340    -1.16006    -2.44919
O     -1.85917    -1.04095    -1.69489
H     -1.76938    -2.01572    -1.73527
H      0.11346     1.38842    -2.65384
H     -1.66625     1.34139    -2.69431
H     -0.82010     1.37807    -1.15469
