 48
-1375.539561932618
C     -1.59825    -3.13775     2.08813
C     -2.46267    -3.78846     3.11359
O     -1.99282    -2.72482     1.01298
O     -0.32286    -3.05142     2.45312
H      0.19137    -2.63216     1.73672
H     -3.35427    -3.18239     3.25312
H     -2.79101    -4.75218     2.72756
H     -1.92325    -3.91062     4.04636
C      1.47256    -2.18841    -0.52117
C      0.64150    -3.35895    -0.94334
O      1.41586    -1.72711     0.61798
O      2.23848    -1.69021    -1.45225
H      2.77740    -0.91447    -1.11972
H      0.89809    -3.67212    -1.94995
H      0.79902    -4.16753    -0.23422
H     -0.40863    -3.08464    -0.87845
C      0.21189     2.84005    -0.88195
C      0.07686     1.34872    -0.88812
O     -0.64836     3.58787    -1.31189
O      1.35440     3.25835    -0.37356
H      1.41152     4.25299    -0.40024
H     -0.87548     1.05691    -1.31372
H      0.89135     0.92314    -1.46626
H      0.16465     0.97089     0.12641
C      0.64475     6.64052    -0.92539
C      0.82678     8.13041    -0.94807
O      1.49207     5.89164    -0.45735
O     -0.48757     6.22668    -1.44381
H     -0.55803     5.23564    -1.39876
H     -0.01472     8.60723    -1.43695
H      0.92372     8.48793     0.07427
H      1.75374     8.36608    -1.46480
C      3.51735     0.94611     0.44939
C      4.32153     2.14719     0.81821
O      3.58622     0.39491    -0.63835
O      2.70634     0.53608     1.40679
H      2.24608    -0.28947     1.13438
H      3.66818     3.01617     0.80215
H      4.71246     2.03644     1.82561
H      5.12467     2.28425     0.10330
C     -4.31364    -5.14895    -0.12390
C     -5.36431    -5.80233    -0.98025
O     -3.81307    -5.66803     0.84441
O     -4.01034    -3.91935    -0.55821
H     -3.33888    -3.52595     0.03307
H     -6.32599    -5.71299    -0.47765
H     -5.42006    -5.32011    -1.95039
H     -5.13645    -6.85951    -1.07857
