 64
-1834.0667819391958
C     -2.14271    -0.69381     0.49820
C     -2.65749     0.27004    -0.51806
O     -2.59412    -0.77435     1.62640
O     -1.14833    -1.45002     0.06153
H     -0.96175    -2.16801     0.71986
H     -2.19261     1.23121    -0.31284
H     -2.38748    -0.05870    -1.51380
H     -3.73384     0.37523    -0.42082
C      0.97793     0.57043     2.96122
C     -0.15241     0.96977     3.84866
O      1.71030     1.37219     2.38862
O      1.12895    -0.72729     2.84312
H      1.86745    -0.96082     2.23203
H     -1.03035     1.10281     3.21804
H     -0.34404     0.19190     4.57693
H      0.07643     1.91251     4.33567
C     -3.19667     1.36999    -4.28010
C     -4.54110     1.32407    -4.94334
O     -2.81145     2.35596    -3.66761
O     -2.49397     0.26604    -4.39602
H     -1.61021     0.36067    -3.95049
H     -4.65877     0.40098    -5.49896
H     -5.30864     1.40244    -4.17661
H     -4.64542     2.18479    -5.59866
C      3.94460    -0.48518     0.69005
C      5.06704    -0.90162    -0.20328
O      3.23837    -1.28812     1.29409
O      3.76512     0.81280     0.76875
H      3.01273     1.02317     1.37024
H      5.75943    -0.07879    -0.34699
H      5.56375    -1.77056     0.21752
H      4.63197    -1.18567    -1.16137
C     -0.93185    -3.12696     3.11851
C     -0.16056    -3.91026     4.13823
O     -0.82697    -3.30334     1.91723
O     -1.72602    -2.21718     3.64839
H     -2.12545    -1.67648     2.92305
H     -0.81375    -4.20834     4.95466
H      0.29712    -4.77557     3.67249
H      0.61796    -3.26566     4.54453
C      1.69583    -2.49511    -1.57619
C      0.52477    -2.93224    -2.39261
O      2.44944    -1.59567    -1.87468
O      1.84054    -3.20825    -0.45396
H      2.52669    -2.78286     0.07885
H      0.38050    -2.23962    -3.21411
H      0.69820    -3.93906    -2.77128
H     -0.35739    -2.95118    -1.76072
C     -0.44025     3.36284     0.79184
C     -1.24257     4.49397     0.22481
O     -0.89513     2.28575     1.10603
O      0.85605     3.67125     0.91359
H      1.30210     2.93830     1.36656
H     -2.26568     4.43586     0.58499
H     -0.79067     5.44346     0.49528
H     -1.25619     4.41043    -0.86001
C      0.14489     1.51000    -2.45382
C      1.42115     1.50758    -1.68466
O     -0.21067     0.57692    -3.15585
O     -0.57888     2.60341    -2.31126
H     -1.41409     2.54199    -2.84692
H      2.07955     0.74605    -2.07957
H      1.88404     2.48766    -1.70651
H      1.20487     1.27124    -0.64156
