 72
-2063.3265169676706
C      3.88156    -0.04999    -2.25532
C      4.86919     0.86650    -1.60628
O      3.95843    -1.26611    -2.18302
O      2.92175     0.57761    -2.90144
H      2.23701    -0.07017    -3.20179
H      5.72342     0.29866    -1.25561
H      5.17993     1.63186    -2.31303
H      4.38341     1.36180    -0.76756
C     -0.09632     3.53463    -1.32640
C      1.17551     3.69852    -2.08947
O     -0.12927     3.43129    -0.10303
O     -1.17213     3.50646    -2.07125
H     -1.96637     3.26298    -1.53142
H      1.27345     2.89609    -2.81427
H      1.14515     4.64063    -2.63425
H      2.00609     3.67775    -1.39618
C     -3.25541     2.48677     0.62069
C     -4.44864     1.94249     1.32934
O     -3.14915     2.51393    -0.59585
O     -2.30892     2.94502     1.42415
H     -1.51097     3.18423     0.90713
H     -4.11970     1.21701     2.06961
H     -4.95922     2.74987     1.85176
H     -5.10923     1.47152     0.61146
C     -2.06413    -1.29980    -0.76630
C     -1.63967    -0.08598    -1.51699
O     -1.42492    -2.33868    -0.75930
O     -3.20315    -1.14724    -0.11935
H     -3.35314    -1.90450     0.48670
H     -1.14184     0.58963    -0.82172
H     -0.94193    -0.35966    -2.30029
H     -2.51345     0.42314    -1.91008
C      2.04255    -0.65869     1.13649
C      2.01308    -2.12829     0.85087
O      2.39465    -0.15877     2.17370
O      1.60744     0.06189     0.08394
H      1.82752     1.00384     0.21977
H      1.13557    -2.37712     0.26435
H      2.89564    -2.39317     0.26886
H      2.01593    -2.68404     1.78370
C     -2.91532    -4.36697     1.34456
C     -3.43534    -5.58776     2.04235
O     -3.28945    -3.23464     1.63616
O     -2.02917    -4.60647     0.41047
H     -1.75205    -3.76353    -0.03440
H     -3.11487    -5.55368     3.08131
H     -4.52150    -5.56465     2.03674
H     -3.06345    -6.48630     1.56509
C      2.58269     2.96279     1.82711
C      3.58539     2.71820     2.90974
O      2.69965     2.56533     0.68220
O      1.52145     3.64708     2.23653
H      0.90396     3.72267     1.48995
H      4.58710     2.81128     2.49919
H      3.42815     3.40362     3.73474
H      3.45618     1.69129     3.24925
C     -1.57471    -0.21196     3.16421
C     -0.42558     0.72886     3.36513
O     -2.73369     0.04346     3.38020
O     -1.17293    -1.41128     2.69696
H     -1.95963    -1.95985     2.55220
H      0.09842     0.87082     2.42387
H     -0.79110     1.68464     3.72034
H      0.29324     0.30891     4.06413
C      1.16818    -2.44827    -3.46873
C      0.10172    -3.36932    -3.97606
O      1.14196    -1.24069    -3.65206
O      2.10688    -3.05081    -2.77331
H      2.81397    -2.40114    -2.52844
H     -0.46761    -2.87759    -4.75700
H      0.54251    -4.29543    -4.33363
H     -0.55883    -3.60570    -3.14420
