 72
-2063.327451098127
C      5.58388     0.65472     1.82203
C      6.93129     0.98670     2.39762
O      4.58442     1.31957     2.05517
O      5.58668    -0.41071     1.05420
H      4.67329    -0.60706     0.71620
H      7.66898     1.03699     1.60079
H      6.87889     1.92921     2.92921
H      7.23246     0.19354     3.07844
C     -1.05962     3.09432    -1.72134
C     -2.47841     2.68155    -1.89643
O     -0.11679     2.49602    -2.23478
O     -0.88669     4.14524    -0.96045
H      0.08429     4.35669    -0.87494
H     -2.78976     2.17960    -0.98193
H     -3.10579     3.55806    -2.04204
H     -2.55559     1.99124    -2.72803
C     -1.84250     1.31449     1.76426
C     -0.76597     2.20908     2.30794
O     -1.77349     0.77535     0.68038
O     -2.87548     1.19033     2.59201
H     -3.56922     0.62325     2.20261
H     -0.72467     3.11034     1.70126
H     -0.96823     2.46673     3.34494
H      0.19179     1.70909     2.22412
C     -2.37322    -2.28779    -0.38054
C     -3.50920    -1.45086    -0.85110
O     -2.13642    -2.47657     0.81208
O     -1.65289    -2.81259    -1.33555
H     -0.90038    -3.35756    -0.98095
H     -3.40540    -1.25695    -1.91237
H     -4.43444    -1.99370    -0.65465
H     -3.53158    -0.53000    -0.27839
C     -5.26706    -1.52469     2.31406
C     -6.54576    -1.77607     3.05865
O     -4.96987    -0.45464     1.81640
O     -4.49678    -2.59793     2.24471
H     -3.67910    -2.40902     1.73787
H     -7.04400    -2.65306     2.65354
H     -6.31914    -1.97798     4.10351
H     -7.18822    -0.90686     2.98419
C      0.90081    -3.96814     0.74596
C      2.25239    -4.47388     1.13957
O      0.41052    -4.14900    -0.35708
O      0.29825    -3.28987     1.70447
H     -0.59099    -2.99740     1.40915
H      2.94717    -3.63566     1.10707
H      2.22563    -4.85533     2.15647
H      2.57699    -5.24106     0.44522
C     -0.96853    -0.56696    -4.16592
C     -0.61803    -1.92231    -4.71165
O     -2.09519    -0.15638    -4.03284
O      0.11999     0.14196    -3.82533
H     -0.14702     0.98118    -3.41633
H     -1.44593    -2.29505    -5.30612
H      0.29202    -1.86932    -5.30460
H     -0.44661    -2.60505    -3.88111
C      2.59424     3.75148    -0.85316
C      3.95807     3.92030    -0.26624
O      1.69707     4.56408    -0.69502
O      2.44968     2.64012    -1.55046
H      1.51638     2.55768    -1.85499
H      3.94164     3.52123     0.74563
H      4.68972     3.36763    -0.84412
H      4.20916     4.97535    -0.21717
C      2.16432    -0.21601     0.30515
C      0.88630    -0.51179    -0.39451
O      3.13851    -0.94659     0.23555
O      2.15297     0.88906     1.02958
H      3.04084     1.04297     1.43725
H      0.65547     0.27813    -1.10359
H      0.98752    -1.45201    -0.92214
H      0.06893    -0.56046     0.31598
