 72
-2063.332965404091
C      1.92790    -3.54268     2.46912
C      3.11330    -2.72083     2.08418
O      1.50997    -4.46781     1.78837
O      1.37799    -3.18056     3.60562
H      0.56649    -3.72289     3.79177
H      3.88996    -2.83208     2.84009
H      3.46973    -3.04114     1.11485
H      2.81620    -1.67638     2.05223
C     -0.85989     3.81514     1.00809
C     -0.77011     2.85971     2.15138
O     -0.03613     3.88572     0.11169
O     -1.92988     4.58490     1.04986
H     -1.95484     5.16386     0.25243
H     -1.73914     2.39765     2.31462
H     -0.03692     2.09817     1.92013
H     -0.49357     3.40600     3.05319
C     -1.22718     5.98367    -2.15086
C     -0.83894     7.15588    -3.00069
O     -1.98176     6.06718    -1.19632
O     -0.67472     4.85358    -2.54274
H     -0.94467     4.14183    -1.93321
H     -1.35301     8.04651    -2.66034
H      0.23789     7.30058    -2.94254
H     -1.08917     6.94923    -4.03864
C     -1.26914    -5.47510     3.27359
C     -2.54577    -6.20896     3.56371
O     -0.87955    -4.53349     3.94798
O     -0.62430    -5.93551     2.22507
H      0.19582    -5.40257     2.05112
H     -3.02762    -5.77598     4.43214
H     -3.20117    -6.14403     2.69798
H     -2.32935    -7.26063     3.73681
C     -3.20689     2.54511    -1.08506
C     -4.39334     3.38315    -1.44843
O     -2.15126     2.57604    -1.67983
O     -3.42026     1.79236    -0.00900
H     -2.61594     1.28549     0.19755
H     -4.24065     4.38145    -1.03980
H     -4.45959     3.46949    -2.52944
H     -5.30630     2.96390    -1.03888
C      1.63919    -4.04268    -1.79765
C      2.01892    -5.48290    -1.64466
O      0.51419    -3.67984    -2.09937
O      2.62245    -3.20185    -1.53637
H      2.37435    -2.28609    -1.81868
H      1.22121    -6.11085    -2.02422
H      2.95021    -5.68147    -2.16904
H      2.17287    -5.68485    -0.58728
C      2.63553     1.98394    -0.11255
C      3.92611     1.35976    -0.54404
O      1.76600     1.36967     0.48292
O      2.52360     3.25339    -0.44411
H      1.61977     3.55586    -0.21688
H      4.31622     0.73741     0.25708
H      3.73393     0.71130    -1.39881
H      4.64175     2.12852    -0.81803
C     -0.63870    -0.90350     0.75653
C     -1.35080    -2.20651     0.93080
O     -1.19251     0.17137     0.66261
O      0.67949    -1.04488     0.71402
H      1.09892    -0.16788     0.57906
H     -2.39774    -2.04026     1.16167
H     -1.27264    -2.78687     0.01365
H     -0.88613    -2.77160     1.73206
C      0.76364    -0.38606    -2.47332
C      0.42632     1.06130    -2.56557
O      1.90855    -0.80991    -2.43296
O     -0.29382    -1.16696    -2.42054
H     -0.01853    -2.11313    -2.32059
H      0.06397     1.40322    -1.60084
H      1.30774     1.62581    -2.84325
H     -0.37738     1.22631    -3.27438
