 48
-1375.5393851684848
C     -1.78392    -2.51264     1.71309
C     -2.95317    -2.69709     2.61969
O     -1.81648    -2.64718     0.50367
O     -0.66586    -2.18443     2.35561
H      0.05251    -2.08947     1.70680
H     -3.19032    -3.75640     2.68019
H     -2.73447    -2.29874     3.60419
H     -3.82168    -2.21650     2.17960
C      1.73752    -2.38744    -0.50479
C      1.01550    -3.65754    -0.81732
O      1.64829    -1.82935     0.58658
O      2.45474    -1.91562    -1.49142
H      2.95086    -1.08985    -1.23156
H      1.32000    -4.03342    -1.78781
H      1.22641    -4.38165    -0.03567
H     -0.05650    -3.46649    -0.79856
C      0.21739     2.57529    -0.78131
C      0.17257     1.09208    -0.99225
O     -0.77398     3.28233    -0.82164
O      1.43121     3.03286    -0.54587
H      1.41711     4.02125    -0.42477
H      0.78314     0.83178    -1.85387
H      0.59545     0.59109    -0.12772
H     -0.84756     0.76448    -1.14759
C      0.37029     6.36076    -0.23658
C      0.43936     7.84435    -0.01681
O      1.36886     5.65406    -0.20751
O     -0.83998     5.90378    -0.45818
H     -0.82758     4.91893    -0.59569
H      1.10965     8.27982    -0.75372
H     -0.54802     8.28411    -0.09405
H      0.86525     8.03615     0.96503
C      3.78907     0.85931     0.20788
C      4.60279     2.08068     0.47386
O      3.74656     0.29380    -0.87207
O      3.09459     0.44960     1.25564
H      2.60282    -0.37162     1.04014
H      3.93127     2.93554     0.51186
H      5.09849     1.99479     1.43688
H      5.32257     2.22127    -0.32415
C     -4.55761    -4.80177    -0.35471
C     -5.40786    -5.72650    -1.18380
O     -4.82155    -4.48207     0.77789
O     -3.47597    -4.37646    -1.02421
H     -2.96398    -3.77597    -0.45093
H     -5.57628    -6.64508    -0.62649
H     -6.37807    -5.26002    -1.34289
H     -4.93262    -5.93700    -2.13534
