 80
-2292.5873202615467
C      3.84214    -1.52449     2.43308
C      5.21381    -1.37701     1.84795
O      3.04111    -2.34022     1.99699
O      3.58037    -0.70808     3.42646
H      2.65140    -0.84277     3.75168
H      5.72302    -2.33693     1.88059
H      5.11287    -1.09854     0.80095
H      5.78248    -0.62530     2.38273
C     -4.92461    -0.22086     3.61403
C     -5.50750    -0.16578     4.98644
O     -4.44908    -1.23180     3.12018
O     -4.97321     0.93449     2.97730
H     -4.43543     0.87838     2.16239
H     -4.79591     0.34459     5.63288
H     -6.42722     0.41165     4.97009
H     -5.67898    -1.16993     5.35650
C      2.12844    -0.96144    -3.97029
C      3.02871    -0.34446    -4.99305
O      1.35535    -1.86941    -4.23588
O      2.22535    -0.43578    -2.76704
H      1.70668    -0.97135    -2.11420
H      3.76437    -1.08584    -5.30401
H      2.42773    -0.07022    -5.85540
H      3.52630     0.52570    -4.58295
C     -0.79931     0.70731    -5.09339
C     -1.62214    -0.37298    -5.71983
O      0.26420     1.07884    -5.56139
O     -1.30988     1.21155    -3.98650
H     -0.72827     1.93417    -3.65784
H     -1.04970    -1.29673    -5.68629
H     -2.56111    -0.49378    -5.19118
H     -1.79994    -0.12355    -6.76318
C      0.22633    -2.97266    -1.34386
C     -0.35443    -3.83785    -0.27421
O      0.85566    -1.95143    -1.09764
O     -0.01447    -3.37978    -2.56618
H      0.46641    -2.80833    -3.22095
H      0.28546    -3.82154     0.59964
H     -1.31964    -3.42232     0.00881
H     -0.49989    -4.85026    -0.63812
C     -1.29630     1.62844     4.01708
C     -0.12580     2.24428     4.72825
O     -2.16731     1.00420     4.57172
O     -1.25080     1.81990     2.69104
H     -2.03988     1.43723     2.26844
H     -0.48160     2.77429     5.60934
H      0.54374     1.44965     5.05454
H      0.40907     2.91834     4.06732
C      1.51553     3.42207    -3.57678
C      2.29335     4.57330    -3.04096
O      0.40992     3.09387    -3.15343
O      2.12037     2.75695    -4.53297
H      1.54529     2.04273    -4.89893
H      2.74949     4.23974    -2.10873
H      3.06240     4.86588    -3.74687
H      1.62175     5.39706    -2.81900
C     -2.72597    -0.35983     0.47253
C     -1.89861    -0.38154    -0.76843
O     -3.14243     0.67949     0.97336
O     -2.96861    -1.53513     1.00597
H     -3.55621    -1.44906     1.81297
H     -2.00777     0.56324    -1.28411
H     -0.85296    -0.52038    -0.51007
H     -2.20074    -1.20325    -1.40968
C      0.27823    -1.84713     3.72026
C     -1.13190    -1.92889     4.19930
O      1.08650    -1.04967     4.17216
O      0.57763    -2.70344     2.76482
H      1.52381    -2.59225     2.47775
H     -1.78246    -1.42189     3.49233
H     -1.44851    -2.96513     4.26042
H     -1.22176    -1.43437     5.15713
C      1.66973     1.82408    -0.17139
C      1.85848     0.99953     1.05994
O      2.53757     2.47266    -0.70437
O      0.41628     1.77272    -0.64021
H      0.38755     2.27292    -1.47243
H      1.58869    -0.03721     0.86940
H      2.89570     1.06368     1.35887
H      1.22268     1.36795     1.86164
