 64
-1834.0665115745958
C     -4.40007    -0.85911    -0.78739
C     -5.23421    -1.39739    -1.90795
O     -3.96555    -1.56294     0.11281
O     -4.17330     0.43407    -0.86963
H     -3.54647     0.71879    -0.15372
H     -5.64436    -2.36210    -1.63025
H     -6.02448    -0.69320    -2.15237
H     -4.59905    -1.51527    -2.78327
C      2.74291     1.22727     3.37536
C      2.75242     1.50783     4.84044
O      2.67739     2.10843     2.52481
O      2.80912    -0.05035     3.06654
H      2.90466    -0.18697     2.09456
H      1.77627     1.89260     5.13194
H      2.98650     0.60971     5.40127
H      3.47383     2.29510     5.04145
C      0.63454    -3.15555    -4.23275
C      1.27638    -4.47970    -4.52984
O     -0.53735    -3.06424    -3.89880
O      1.43587    -2.11983    -4.35095
H      0.91767    -1.28056    -4.21018
H      0.74293    -4.95542    -5.34967
H      2.32211    -4.34818    -4.78215
H      1.17384    -5.12040    -3.65677
C      3.10038     0.37733    -0.46055
C      3.17163     0.09955    -1.92559
O      3.18460    -0.48368     0.40790
O      2.94626     1.65208    -0.18101
H      2.88625     1.80571     0.78722
H      2.21195     0.33829    -2.37729
H      3.92696     0.73896    -2.37787
H      3.40320    -0.94383    -2.09512
C     -1.80483     0.35859     1.68358
C     -0.57747     0.76765     2.43169
O     -2.37678     1.11818     0.91540
O     -2.20200    -0.86885     1.91994
H     -2.92838    -1.12630     1.29373
H     -0.84259     1.54407     3.14242
H     -0.13537    -0.07950     2.93949
H      0.11716     1.19648     1.71564
C      0.40139    -2.44774    -0.21670
C     -0.69065    -3.46887    -0.27503
O      0.32032    -1.33078    -0.66845
O      1.50173    -2.89869     0.40251
H      2.15444    -2.18203     0.42625
H     -0.93902    -3.66374    -1.31526
H     -0.38508    -4.38780     0.21788
H     -1.57845    -3.06593     0.20626
C      0.08978     4.31346     4.00538
C     -0.97995     5.36620     3.98101
O      0.22133     3.47474     4.86508
O      0.88760     4.39094     2.93247
H      1.54173     3.67520     2.97511
H     -0.53982     6.34376     3.79987
H     -1.66542     5.15574     3.16068
H     -1.52103     5.35757     4.91963
C     -0.96225     0.16119    -3.28319
C     -1.40787     1.46571    -2.71441
O      0.05355     0.03950    -3.94954
O     -1.77785    -0.84318    -3.01779
H     -1.36657    -1.68699    -3.32795
H     -0.77322     2.26452    -3.08263
H     -2.44607     1.64308    -2.97860
H     -1.34892     1.41595    -1.63058
