 32
-917.0212514998304
C      1.78772     1.83660    -0.41704
C      3.15978     1.31190    -0.67735
O      1.30602     2.81156    -0.92952
O      1.10447     1.07321     0.47554
H      0.21867     1.45943     0.60166
H      3.70841     2.02360    -1.28550
H      3.67586     1.12617     0.26084
H      3.09208     0.35529    -1.18872
C     -1.80794     2.14039    -0.85845
C     -1.85987     3.54123    -1.36578
O     -1.57687     1.86726     0.31991
O     -2.00888     1.22428    -1.76711
H     -1.97771     0.30061    -1.38370
H     -2.26972     4.19005    -0.59822
H     -0.83801     3.85360    -1.57026
H     -2.44041     3.58673    -2.28015
C      2.48024    -2.30362     0.77365
C      2.46703    -3.78986     1.00428
O      3.45212    -1.65604     0.48103
O      1.25500    -1.76225     0.92740
H      1.33799    -0.80666     0.77368
H      1.83029    -4.26875     0.26221
H      3.47693    -4.17438     0.92633
H      2.05469    -4.01167     1.98686
C     -2.02398    -1.49329     0.43032
C     -2.20268    -2.89106     0.92959
O     -1.95204    -1.21225    -0.75523
O     -1.94243    -0.59718     1.39213
H     -1.83332     0.30503     1.01426
H     -1.23359    -3.25890     1.26053
H     -2.88049    -2.90220     1.77784
H     -2.57262    -3.52151     0.12891
