 72
-2063.330758277882
C      4.72070    -4.07194    -0.02326
C      5.56666    -5.18893     0.51089
O      3.90008    -4.25142    -0.91231
O      4.92998    -2.90745     0.54776
H      4.36235    -2.20360     0.13237
H      6.16481    -5.59690    -0.30029
H      6.20498    -4.83209     1.31076
H      4.91583    -5.98380     0.86688
C     -3.79939     0.59635    -0.52391
C     -4.79409    -0.41097    -0.99735
O     -2.61800     0.58149    -0.85832
O     -4.28493     1.49290     0.30025
H     -3.58671     2.15765     0.55871
H     -4.70779    -1.28517    -0.35114
H     -5.80379    -0.01449    -0.94602
H     -4.54186    -0.72446    -2.00267
C     -1.27529     2.84720     1.13839
C     -0.41025     3.25038     2.28147
O     -2.44412     3.17632     1.03341
O     -0.67176     2.11406     0.22056
H     -1.35154     1.63730    -0.30536
H     -0.48851     4.32692     2.41728
H     -0.77628     2.76069     3.18379
H      0.61796     2.96967     2.09751
C     -3.24359    -0.54378     2.50647
C     -4.32380     0.07818     3.33424
O     -3.40993    -1.55043     1.83652
O     -2.10230     0.11019     2.54070
H     -1.38690    -0.41027     2.09362
H     -4.00055     0.16337     4.36969
H     -4.52287     1.08117     2.96348
H     -5.22347    -0.52370     3.27031
C     -2.03807    -2.88606    -2.11494
C     -1.14140    -4.07376    -2.30908
O     -3.23634    -2.89390    -2.22523
O     -1.33556    -1.78864    -1.77574
H     -1.95025    -1.07894    -1.52889
H     -1.63351    -4.79370    -2.95847
H     -0.18478    -3.77478    -2.72473
H     -0.97380    -4.54013    -1.33917
C     -0.31914    -2.60018     1.28245
C      0.87092    -3.48943     1.08622
O     -0.21771    -1.41089     1.53343
O     -1.47211    -3.21646     1.15865
H     -2.22057    -2.60576     1.37836
H      0.79462    -4.38386     1.69791
H      0.92166    -3.79724     0.04702
H      1.77212    -2.94292     1.33550
C      3.33116     3.15922    -0.08578
C      4.57175     2.45547     0.37221
O      2.98349     3.18053    -1.25718
O      2.64109     3.72802     0.88312
H      1.83563     4.18065     0.52755
H      4.41809     1.38306     0.27390
H      5.39938     2.73549    -0.27338
H      4.78407     2.70605     1.40563
C      0.11978     4.88661    -1.30333
C     -1.20127     5.44763    -1.73555
O      0.52410     4.99551    -0.15422
O      0.78772     4.27497    -2.25232
H      1.62480     3.88368    -1.89012
H     -1.34046     5.31926    -2.80276
H     -1.98893     4.93655    -1.18613
H     -1.24222     6.50123    -1.46936
C      2.44738    -1.29064    -1.31268
C      1.45938    -0.23485    -1.65756
O      3.37431    -1.10013    -0.53805
O      2.22884    -2.45345    -1.89187
H      2.89601    -3.12163    -1.58775
H      0.86703    -0.05484    -0.76555
H      1.97543     0.68622    -1.91137
H      0.80748    -0.56006    -2.45778
