 56
-1604.7980852631729
C      1.56744    -0.12269    -3.70089
C      0.76868    -0.85707    -4.73868
O      1.19317     0.89832    -3.16974
O      2.72508    -0.72142    -3.40848
H      3.17786    -0.20149    -2.71846
H      0.57058    -0.17908    -5.56563
H      1.30549    -1.73394    -5.08701
H     -0.18872    -1.14024    -4.30878
C     -2.31212     0.37380    -1.27694
C     -1.12036     1.21228    -0.95270
O     -3.32468     0.37010    -0.58862
O     -2.17543    -0.36172    -2.36001
H     -2.99902    -0.89239    -2.52713
H     -0.35948     0.56198    -0.52746
H     -0.71970     1.65263    -1.85698
H     -1.39493     1.95902    -0.21831
C     -1.16939    -0.08395     2.88669
C     -2.49471    -0.75343     2.69233
O     -0.28558    -0.58784     3.57242
O     -1.03880     1.06262     2.27137
H      3.56967     2.60162     5.01805
H     -2.98162    -0.83930     3.66274
H     -3.10889    -0.18412     2.00692
H     -2.32593    -1.75885     2.31357
C      3.62039     1.50442    -0.47536
C      2.30974     2.21461    -0.47346
O      3.99322     0.66202    -1.26507
O      4.42263     1.89053     0.53505
H      5.23055     1.36804     0.46595
H      1.70608     1.82259     0.34404
H      2.46031     3.27862    -0.30525
H      1.79993     2.04204    -1.41388
C     -5.40978    -1.73657    -2.09826
C     -6.63029    -2.54577    -2.43030
O     -4.39721    -1.78563    -2.78083
O     -5.53115    -0.98860    -1.02420
H     -4.69724    -0.47076    -0.85606
H     -7.42097    -2.35333    -1.71445
H     -6.95545    -2.29365    -3.43644
H     -6.36315    -3.59963    -2.42922
C      2.08838     1.89392     3.66630
C      3.30803     2.70715     3.96836
O      1.17889     2.29302     2.95930
O      2.09719     0.70370     4.23841
H      1.28597     0.20821     3.99886
H     -0.17020     1.50051     2.48141
H      4.13725     2.33108     3.37336
H      3.12924     3.74586     3.71432
C      1.70488    -1.62794     1.04377
C      2.32748    -2.39085    -0.08451
O      1.74147    -0.42393     1.15014
O      1.08466    -2.41846     1.92596
H      0.71052    -1.85438     2.62329
H      1.73459    -2.22994    -0.98208
H      3.32104    -1.99918    -0.27881
H      2.36571    -3.45158     0.14538
