 72
-2063.3247321644176
C      4.80859    -2.94576    -1.20181
C      6.27837    -2.79168    -1.43815
O      4.01443    -3.17521    -2.10061
O      4.45834    -2.79067     0.05488
H      3.47163    -2.87597     0.15699
H      6.51046    -1.72819    -1.46569
H      6.84257    -3.23445    -0.62278
H      6.55218    -3.23505    -2.38862
C     -1.73653     1.89160    -1.88887
C     -0.58766     1.38901    -2.69315
O     -1.60454     2.69035    -0.95525
O     -2.90113     1.41028    -2.22458
H     -3.63651     1.80038    -1.68106
H     -0.01496     2.22514    -3.08713
H      0.06429     0.83910    -2.01764
H     -0.92595     0.74077    -3.49567
C     -4.77330     2.86554     0.35803
C     -5.93808     3.15434     1.25178
O     -4.87672     2.33669    -0.73585
O     -3.61494     3.23744     0.87228
H     -2.89236     3.06989     0.23248
H     -5.96683     4.21677     1.48354
H     -6.86069     2.85118     0.77124
H     -5.81470     2.62050     2.19162
C     -2.94007    -1.48716     1.65962
C     -3.36115    -0.15883     1.11927
O     -2.15089    -1.57917     2.58904
O     -3.47097    -2.51391     1.05141
H     -3.17017    -3.36408     1.46511
H     -2.51207     0.26983     0.59865
H     -4.19500    -0.26591     0.43725
H     -3.61052     0.50127     1.94234
C      3.28548     1.61469    -1.42497
C      3.79596     0.20677    -1.34709
O      3.35262     2.40035    -0.50862
O      2.72763     1.88998    -2.60482
H      2.39698     2.81264    -2.60008
H      4.23645    -0.10419    -2.28872
H      4.51867     0.12414    -0.54548
H      2.96167    -0.45488    -1.12879
C     -1.73549    -4.85159     2.99550
C     -1.23678    -6.16756     3.52063
O     -2.58310    -4.76937     2.11893
O     -1.16812    -3.80990     3.56153
H     -1.54161    -2.96040     3.20768
H     -1.75300    -6.97950     3.02267
H     -0.16505    -6.24238     3.34920
H     -1.40154    -6.21727     4.59460
C      1.53346     4.80808    -1.28728
C      2.62504     5.54572    -0.58857
O      1.60816     4.35131    -2.41442
O      0.43474     4.65944    -0.55305
H     -0.20770     4.14168    -1.05905
H      3.34696     4.80959    -0.23832
H      3.12539     6.20864    -1.28934
H      2.22970     6.09939     0.25583
C      0.47555     0.74122     1.18822
C      1.15612     0.08871     2.35028
O      0.25482     0.20060     0.12612
O      0.11100     1.99581     1.44187
H     -0.27288     2.37496     0.63550
H      0.41003    -0.14565     3.11009
H      1.63426    -0.82688     2.02477
H      1.88458     0.77201     2.78398
C      1.04049    -2.90454    -0.66712
C     -0.42752    -2.83534    -0.41001
O      1.84832    -2.96927     0.24993
O      1.38921    -2.87363    -1.93034
H      2.36862    -2.99563    -2.02440
H     -1.00268    -3.05200    -1.30041
H     -0.66818    -3.52728     0.38726
H     -0.64558    -1.82963    -0.06534
