 48
-1375.5401036172998
C      0.47874    -2.55663     2.73883
C      1.84639    -3.13129     2.96507
O     -0.55002    -3.18199     2.79921
O      0.52237    -1.24609     2.43529
H     -0.38979    -0.96301     2.27856
H      2.52204    -2.38552     3.37348
H      1.76811    -3.98390     3.63357
H      2.23766    -3.47713     2.00970
C      4.32471    -2.91510    -0.54883
C      5.44343    -3.91466    -0.51167
O      3.15050    -3.26201    -0.54411
O      4.71455    -1.66390    -0.58157
H      3.92886    -1.04727    -0.59031
H      6.40244    -3.41055    -0.50814
H      5.33083    -4.52860     0.37902
H      5.35983    -4.57232    -1.37348
C     -2.98384     2.71790     0.61412
C     -3.26805     4.17698     0.69735
O     -2.88752     2.11217    -0.45081
O     -2.84087     2.12179     1.77691
H     -2.59452     1.17724     1.64616
H     -3.55249     4.44960     1.70712
H     -2.37287     4.71783     0.39314
H     -4.04645     4.42638    -0.01714
C     -0.68362     4.34941    -2.33981
C      0.34798     4.72194    -3.36473
O     -0.96005     4.99767    -1.36002
O     -1.27352     3.18127    -2.63245
H     -1.92281     2.99465    -1.93661
H      1.13638     3.97118    -3.37482
H     -0.10088     4.74011    -4.35559
H      0.76574     5.69128    -3.12036
C      1.44433    -0.41319    -0.66218
C      0.34285     0.58797    -0.76153
O      2.61770    -0.08786    -0.59449
O      1.04295    -1.66971    -0.65241
H      1.82785    -2.28082    -0.62680
H     -0.19581     0.63658     0.18002
H      0.76400     1.56074    -0.98090
H     -0.35384     0.30546    -1.54539
C     -2.58789    -1.09972     0.39253
C     -2.50868    -2.58648     0.36954
O     -2.07359    -0.41061     1.26859
O     -3.25174    -0.57168    -0.61326
H     -3.21646     0.41110    -0.56218
H     -2.71194    -2.97544     1.36198
H     -3.19225    -2.99255    -0.36826
H     -1.48357    -2.86603     0.13108
