 64
-1834.0601971261233
C     -1.72062    -1.75251     1.10494
C     -0.84323    -1.88979     2.30219
O     -1.65509    -2.48622     0.12285
O     -2.60384    -0.78173     1.19685
H     -3.11747    -0.69356     0.36018
H      0.09890    -2.34398     2.01665
H     -0.68429    -0.91629     2.74820
H     -1.34805    -2.53753     3.01919
C      3.52147    -1.60159     2.59544
C      3.85683    -2.96974     3.08703
O      4.11880    -1.04695     1.68429
O      2.50375    -1.04470     3.22246
H      2.35977    -0.13425     2.88288
H      3.74648    -3.01273     4.16638
H      3.14989    -3.66453     2.63747
H      4.86397    -3.23464     2.78380
C     -3.65482    -1.12400    -2.23639
C     -4.30829    -0.78153    -3.53237
O     -3.90835    -0.55287    -1.18069
O     -2.77122    -2.09783    -2.31388
H     -2.37022    -2.28174    -1.43308
H     -4.08274    -1.53655    -4.27710
H     -5.37985    -0.68626    -3.37861
H     -3.92435     0.18770    -3.84802
C      2.67337     1.86913     1.13677
C      2.31111     3.17558     0.52633
O      2.28448     1.50195     2.23632
O      3.44697     1.10434     0.38106
H      3.72072     0.27849     0.87913
H      3.14140     3.55614    -0.06142
H      1.46162     3.00328    -0.13708
H      2.00639     3.87079     1.29883
C      1.83214    -3.20356    -0.47250
C      3.13226    -3.19364    -1.21957
O      1.72631    -3.37208     0.72001
O      0.78607    -2.99607    -1.27877
H     -0.02587    -2.98465    -0.74735
H      3.04660    -2.56364    -2.09851
H      3.91620    -2.83382    -0.56022
H      3.36690    -4.21092    -1.53492
C     -2.56891     2.59198    -2.07308
C     -1.76897     3.85106    -1.98394
O     -2.70604     1.93455    -3.08008
O     -3.13007     2.24783    -0.90539
H     -3.54187     1.37890    -1.01748
H     -0.77701     3.65364    -2.37927
H     -2.24602     4.61240    -2.60097
H     -1.70385     4.17574    -0.95113
C     -1.19783     2.66096     2.32165
C     -2.66504     2.63384     2.62603
O     -0.64671     3.46045     1.60821
O     -0.54066     1.65824     2.93829
H      0.40253     1.74609     2.73086
H     -3.01598     1.60782     2.63311
H     -2.83814     3.06756     3.61164
H     -3.19754     3.20938     1.87809
C      1.00350     0.72842    -2.32063
C      0.24229    -0.01859    -3.37502
O      0.57488     1.65566    -1.67668
O      2.24158     0.23457    -2.15291
H      2.67254     0.71122    -1.42406
H      0.92686    -0.45200    -4.10106
H     -0.30963    -0.81894    -2.88718
H     -0.47044     0.64998    -3.84690
