 48
-1375.5438005601304
C     -0.91951    -0.14747     2.70611
C     -0.62647    -1.57024     3.06854
O     -0.28505     0.79962     3.10779
O     -1.95729    -0.02117     1.86964
H     -2.04118     0.91965     1.64843
H     -1.35531    -2.24388     2.63086
H      0.37317    -1.82111     2.72112
H     -0.63118    -1.66440     4.15260
C      1.68002    -3.24248    -0.64922
C      1.46406    -4.63925    -1.13717
O      1.58974    -2.26060    -1.37483
O      1.95333    -3.16497     0.63421
H      2.15680    -2.22503     0.87954
H      2.11639    -5.32543    -0.60590
H      0.43043    -4.91270    -0.93570
H      1.63694    -4.68271    -2.20706
C      0.01280     2.28329    -1.97648
C      0.52680     1.75660    -3.27733
O      0.43492     3.30736    -1.46227
O     -0.93372     1.54704    -1.42221
H     -1.23110     1.96295    -0.57893
H     -0.29231     1.37516    -3.87988
H      1.06008     2.54161    -3.80118
H      1.20617     0.93195    -3.07000
C     -1.03597     3.50792     1.51270
C     -1.29370     3.82712     2.94814
O     -1.71060     2.69337     0.88599
O     -0.02744     4.15182     0.98306
H      0.12689     3.87213     0.03975
H     -0.86125     4.78721     3.20746
H     -2.36229     3.80440     3.13694
H     -0.82780     3.03964     3.54006
C      2.44985     0.31274     0.46260
C      2.73498     1.69790     0.94925
O      2.51560    -0.66741     1.18485
O      2.10835     0.24616    -0.80813
H      1.90898    -0.69803    -1.05475
H      2.04463     1.92975     1.75701
H      3.74657     1.73019     1.34993
H      2.62890     2.40869     0.13899
C     -2.09030    -2.69162    -1.98561
C     -1.92437    -1.45300    -1.16197
O     -2.10327    -3.82415    -1.57538
O     -2.21759    -2.41403    -3.30579
H     -2.33764    -3.26239    -3.75085
H     -0.96771    -0.99232    -1.40011
H     -2.69343    -0.72179    -1.39645
H     -1.95883    -1.70500    -0.11165
