 72
-2063.326188281931
C      2.08479     0.30648     0.06126
C      2.49629     1.01620     1.31817
O      0.93596     0.19944    -0.30415
O      3.11529    -0.19451    -0.62278
H      2.78428    -0.57335    -1.45908
H      3.53779     0.82582     1.56375
H      2.34141     2.08605     1.18119
H      1.84693     0.69393     2.12462
C     -0.89857     2.73526    -1.02841
C     -0.26049     2.72982    -2.37391
O     -2.00974     2.25186    -0.82054
O     -0.18857     3.29465    -0.07804
H     -0.63046     3.17942     0.79706
H     -0.97046     3.08189    -3.11673
H      0.64618     3.32328    -2.37678
H     -0.02869     1.69890    -2.62666
C     -2.59338     2.81379     2.40966
C     -3.26918     3.04216     3.71742
O     -1.37132     2.85786     2.26757
O     -3.40052     2.55098     1.41147
H     -2.89412     2.43083     0.56827
H     -4.34497     3.06814     3.58737
H     -2.97564     2.24951     4.40535
H     -2.90271     3.97253     4.14373
C     -2.37689    -0.26583    -3.52561
C     -2.68341    -1.59616    -4.14159
O     -1.81284     0.64261    -4.09082
O     -2.79261    -0.18479    -2.25804
H     -2.53629     0.68518    -1.91259
H     -2.35696    -1.58762    -5.17357
H     -2.15403    -2.37820    -3.60318
H     -3.74940    -1.80587    -4.07635
C     -0.07528     1.30622     5.32644
C      0.90435     0.55218     6.17353
O     -1.26014     1.39255     5.53715
O      0.51928     1.90424     4.27998
H     -0.17900     2.32174     3.75612
H      1.30005    -0.29236     5.61329
H      1.74028     1.19690     6.43890
H      0.40564     0.19419     7.06748
C      2.19259    -3.50185     3.58963
C      3.28829    -4.28068     4.26224
O      1.69644    -2.50594     4.09973
O      1.82726    -3.98088     2.42307
H      1.09596    -3.43297     2.02703
H      2.93828    -4.61808     5.23504
H      3.58023    -5.12634     3.65062
H      4.13770    -3.62272     4.43085
C      0.68553     0.31786    -5.83708
C     -0.02334     1.33355    -6.66786
O      0.56206    -0.88764    -5.99459
O      1.44964     0.84351    -4.89565
H      1.80785     0.12921    -4.32785
H     -0.28023     0.90673    -7.63103
H     -0.93793     1.59944    -6.14019
H      0.58841     2.22336    -6.77871
C      1.56635    -2.18084    -3.08235
C      1.59921    -3.05294    -1.86341
O      2.24569    -1.16285    -3.18228
O      0.74612    -2.58826    -4.01682
H      0.73493    -1.95674    -4.78993
H      0.90414    -2.65190    -1.12718
H      1.30847    -4.07045    -2.10712
H      2.59261    -3.03027    -1.42644
C     -0.61811    -1.54698     1.89168
C     -1.67524    -0.74553     1.20835
O     -0.09729    -2.53658     1.39841
O     -0.28261    -1.07965     3.07781
H      0.44573    -1.62475     3.47582
H     -1.24454     0.20167     0.89430
H     -2.03162    -1.27643     0.33613
H     -2.49312    -0.53620     1.88917
