 72
-2063.3279010565566
C      3.51780     1.13224    -1.94719
C      4.69490     0.69755    -1.13616
O      3.33319     2.30305    -2.24745
O      2.71028     0.15563    -2.29693
H      1.91120     0.52336    -2.75459
H      4.54019    -0.31307    -0.77712
H      5.58745     0.74234    -1.76028
H      4.81891     1.39117    -0.30962
C      0.80813     4.00912    -0.08043
C      1.61584     5.10187    -0.69716
O      1.03993     3.55124     1.03007
O     -0.17233     3.56700    -0.83218
H     -0.69173     2.86264    -0.35454
H      2.07396     5.71490     0.07251
H      2.40027     4.64355    -1.29987
H      0.99413     5.70312    -1.35278
C     -2.01134     1.67003     1.49798
C     -3.35910     1.22989     1.94760
O     -1.68722     1.79727     0.32580
O     -1.16533     1.91170     2.48197
H     -0.26665     2.03560     2.12889
H     -3.74256     1.92206     2.69450
H     -4.02603     1.15777     1.09639
H     -3.24895     0.24884     2.40895
C     -2.18152    -1.72465    -1.30901
C     -1.74500    -0.48058    -1.99829
O     -1.77769    -2.83932    -1.60191
O     -3.06466    -1.51581    -0.35050
H     -3.25076    -2.34750     0.12917
H     -1.67914    -0.64781    -3.07007
H     -2.42932     0.32363    -1.76515
H     -0.75538    -0.20398    -1.65208
C      1.57119    -1.72691     0.16503
C      1.30139    -2.81609    -0.82394
O      2.60481    -1.60694     0.77811
O      0.53060    -0.89265     0.31901
H      0.75727    -0.21357     0.99164
H      2.24662    -3.25387    -1.13275
H      0.68119    -3.57892    -0.35706
H      0.76176    -2.43017    -1.68122
C     -3.46621    -5.01089     0.17741
C     -4.20776    -6.22919     0.63887
O     -3.34892    -4.00883     0.87609
O     -2.95512    -5.10863    -1.02484
H     -2.49576    -4.26270    -1.27573
H     -3.66796    -6.66576     1.47644
H     -5.18703    -5.93098     1.00248
H     -4.29435    -6.94834    -0.16649
C      2.65936     1.14422     2.33795
C      3.64770     0.27684     3.05152
O      1.48063     0.85377     2.19497
O      3.16926     2.26074     1.85525
H      2.43478     2.80416     1.49191
H      3.91992    -0.54224     2.38655
H      4.52913     0.84309     3.33322
H      3.16797    -0.16148     3.92175
C     -1.14922    -2.00530     3.01618
C      0.08031    -1.51630     3.71934
O     -2.24808    -1.52542     3.14351
O     -0.89758    -3.05885     2.22089
H     -1.72697    -3.33458     1.79938
H      0.92937    -1.55981     3.05069
H     -0.07817    -0.49553     4.04539
H      0.28676    -2.15247     4.57999
C      0.44485     2.38982    -3.78705
C     -0.84836     2.93241    -4.31277
O      0.58820     1.23160    -3.42741
O      1.40847     3.28476    -3.74988
H      2.18800     2.91106    -3.26916
H     -0.69957     3.34518    -5.30830
H     -1.58826     2.14187    -4.33558
H     -1.18275     3.73416    -3.65804
