 32
-917.0136269755621
C      4.08586     0.04323    -1.67162
C      2.63144     0.40336    -1.63237
O      4.80568    -0.10158    -0.71722
O      4.53541    -0.12496    -2.93745
H      5.46868    -0.35822    -2.86162
H      2.04299    -0.51270    -1.62503
H      2.40985     0.93770    -0.71620
H      2.35361     0.99157    -2.50433
C     -3.29513     1.82399    -1.58867
C     -3.69006     2.57352    -2.82428
O     -4.03436     1.71958    -0.62274
O     -2.08882     1.29590    -1.64537
H     -1.87402     0.81874    -0.80958
H     -4.58539     2.11763    -3.23916
H     -3.94246     3.59443    -2.55015
H     -2.88615     2.56096    -3.55065
C      1.57820    -1.71651     1.76422
C      3.04465    -1.83202     2.04490
O      0.74264    -2.51348     2.11178
O      1.27881    -0.59684     1.07813
H      0.31022    -0.53650     0.99858
H      3.61846    -1.70798     1.13147
H      3.34382    -1.04274     2.73393
H      3.24306    -2.79815     2.49651
C     -2.32099    -0.24964     1.53255
C     -2.02991    -1.13611     2.69616
O     -1.49414    -0.01718     0.65087
O     -3.52701     0.25290     1.52313
H     -3.68999     0.81272     0.71300
H     -1.84015    -2.14176     2.33231
H     -1.10925    -0.80755     3.16984
H     -2.85816    -1.12647     3.39583
