 72
-2063.3262884972723
C      3.41157     1.02875     0.74960
C      3.88914     2.29115     1.39009
O      2.85036     0.99562    -0.33554
O      3.63761    -0.05448     1.47160
H      3.44707    -0.86743     0.94291
H      4.13475     3.01997     0.62490
H      3.07698     2.69000     1.99621
H      4.74217     2.08374     2.02861
C     -1.62931     5.36276     1.53789
C     -1.56301     6.44356     2.57446
O     -2.04618     4.24179     1.75174
O     -1.17248     5.75166     0.35678
H     -1.31488     5.04096    -0.30307
H     -0.53481     6.78359     2.67900
H     -2.16008     7.29414     2.25197
H     -1.93200     6.06794     3.52136
C     -3.68841     2.05197    -3.53557
C     -4.90174     1.62042    -4.29935
O     -2.69627     1.34546    -3.43594
O     -3.78920     3.24362    -2.98525
H     -2.97434     3.45449    -2.47548
H     -4.62584     1.46389    -5.33908
H     -5.23693     0.66504    -3.90350
H     -5.68604     2.36354    -4.22129
C     -0.74009    -5.47373     0.82515
C     -0.36020    -6.81437     1.35413
O     -1.04484    -4.53204     1.55776
O     -0.70471    -5.36387    -0.47702
H     -0.98012    -4.45468    -0.77018
H      0.68559    -6.75739     1.65197
H     -0.95634    -7.04623     2.23159
H     -0.47576    -7.56747     0.58278
C     -0.51271     3.15218    -1.62890
C      0.74594     3.63547    -0.99612
O     -1.55832     3.80058    -1.57971
O     -0.42191     1.99557    -2.22609
H     -1.28065     1.72352    -2.64921
H      1.56805     2.98286    -1.26685
H      0.94135     4.66394    -1.29584
H      0.61263     3.61722     0.08498
C     -1.72021    -2.00885    -0.49820
C     -1.99334    -0.64221    -1.03987
O     -1.38784    -2.94436    -1.20947
O     -1.88238    -2.12638     0.80407
H     -1.64540    -3.03854     1.10378
H     -1.11175    -0.27658    -1.55608
H     -2.79267    -0.70191    -1.77359
H     -2.26027     0.02847    -0.23510
C      2.36277    -2.02981    -1.23931
C      2.01763    -3.29179    -1.96280
O      3.16286    -1.98749    -0.32036
O      1.72426    -0.96356    -1.68129
H      2.06349    -0.16599    -1.20835
H      2.35013    -4.14299    -1.37930
H      0.94597    -3.33656    -2.13176
H      2.52042    -3.29379    -2.92967
C      0.02011     1.59177     1.82226
C      0.40445     0.16989     2.09179
O      0.74766     2.53754     2.02995
O     -1.19665     1.71941     1.27941
H     -1.51844     2.64311     1.39704
H     -0.46124    -0.44994     2.28550
H      0.92294    -0.23177     1.22353
H      1.09936     0.13833     2.92446
C      2.35086    -3.85939     2.09799
C      3.65862    -3.26574     2.51790
O      2.24177    -4.92135     1.53326
O      1.30300    -3.07687     2.39543
H      0.48596    -3.52040     2.11583
H      4.23967    -3.06891     1.62072
H      3.50791    -2.34238     3.06762
H      4.19929    -3.98912     3.12481
