 56
-1604.8085460249163
C      3.02209     0.39835     2.64550
C      3.85222     0.11640     3.86218
O      3.51854     0.65285     1.55868
O      1.72440     0.36745     2.85804
H      1.24305     0.48538     1.99907
H      4.48553    -0.74575     3.66657
H      4.50633     0.96536     4.04740
H      3.21888    -0.06803     4.72186
C     -1.62867    -2.92271    -2.84249
C     -1.37846    -3.35174    -4.24919
O     -1.36397    -3.63027    -1.87318
O     -2.13645    -1.71977    -2.72146
H     -2.29745    -1.48082    -1.77136
H     -0.32049    -3.19655    -4.45358
H     -1.59718    -4.41045    -4.35074
H     -1.97116    -2.75588    -4.93379
C      0.48633     3.65364     1.64254
C      1.84068     4.02076     2.15662
O      0.19399     3.73820     0.45982
O     -0.32871     3.21761     2.57015
H     -4.64917     2.92459    -0.91952
H      2.40603     3.09969     2.28567
H      2.35074     4.65438     1.44004
H      1.76359     4.51112     3.12234
C      1.01074     0.76770    -0.56322
C      0.19238     0.97715    -1.78697
O      0.53455     0.63480     0.55298
O      2.30383     0.73096    -0.79200
H      2.80208     0.68454     0.06539
H     -0.82784     0.66928    -1.58897
H      0.19095     2.04536    -2.00690
H      0.61882     0.43580    -2.62472
C     -2.03386    -1.64185     0.76685
C     -1.90152    -1.02966     2.12122
O     -2.50842    -1.05351    -0.19341
O     -1.59336    -2.88354     0.70137
H     -1.64444    -3.21557    -0.22221
H     -0.85295    -0.78797     2.28482
H     -2.49056    -0.12182     2.16555
H     -2.21626    -1.73995     2.88263
C     -2.93192     2.57376     0.29934
C     -4.27749     2.17568    -0.22513
O     -2.63787     2.50850     1.48206
O     -2.09277     2.95701    -0.64026
H     -1.22476     3.23324    -0.24745
H     -1.19012     2.93278     2.17139
H     -4.16210     1.23747    -0.76591
H     -4.96208     2.03446     0.60286
C      2.02405    -2.71506    -2.09356
C      3.51161    -2.63447    -1.91571
O      1.43073    -2.28272    -3.05265
O      1.41529    -3.29925    -1.05057
H      0.46044    -3.35861    -1.22547
H      3.74519    -1.69859    -1.41119
H      3.86936    -3.45972    -1.30671
H      3.99390    -2.63200    -2.88866
