 64
-1834.0678202539182
C      0.71841    -0.31996    -2.34975
C      0.30024    -0.72505    -3.72350
O      0.16295    -0.69046    -1.33215
O      1.75380     0.50636    -2.32614
H      1.96534     0.70466    -1.39912
H      0.97463    -0.31331    -4.46784
H      0.27890    -1.81147    -3.77158
H     -0.71494    -0.37195    -3.89710
C      4.52735     3.70050     1.01550
C      5.72447     4.52660     0.65943
O      4.47303     2.97290     1.99176
O      3.52476     3.83792     0.16669
H      2.76055     3.32356     0.48801
H      6.04919     4.28422    -0.34962
H      5.45469     5.58041     0.67400
H      6.52232     4.33763     1.36712
C     -2.96000    -2.04205     0.94209
C     -3.26798    -3.47499     1.21693
O     -3.38305    -1.39648     0.00298
O     -2.15452    -1.50184     1.85401
H     -1.95996    -0.59049     1.58822
H     -2.35200    -4.05570     1.13567
H     -3.64742    -3.57982     2.23257
H     -3.98876    -3.83242     0.49224
C      2.18984     0.38738     1.49310
C      1.45179    -0.88225     1.74842
O      2.10657     1.04031     0.46733
O      2.93776     0.76922     2.51497
H      3.48109     1.55088     2.27127
H      1.17799    -1.33823     0.80418
H      2.03717    -1.56118     2.36292
H      0.53083    -0.64696     2.28177
C     -0.52970    -4.19358    -1.51709
C     -0.91886    -5.54628    -1.00081
O     -0.24070    -3.95125    -2.66453
O     -0.55339    -3.25619    -0.55615
H     -0.35566    -2.38460    -0.94426
H     -0.60628    -6.30399    -1.71300
H     -0.47012    -5.73117    -0.02729
H     -2.00293    -5.57637    -0.89747
C      0.92884     3.26715     2.84821
C      1.66335     3.91394     3.97577
O      1.10988     3.55327     1.67670
O      0.09089     2.32674     3.24125
H     -0.40445     1.94773     2.48272
H      1.87204     4.94899     3.72494
H      1.10006     3.84194     4.89999
H      2.61298     3.39380     4.09376
C     -1.44837     1.78666     0.04468
C     -2.55580     1.55101    -0.92673
O     -1.38720     1.26431     1.15356
O     -0.52922     2.62331    -0.38790
H      0.16680     2.77004     0.28661
H     -2.22414     0.79245    -1.63613
H     -3.42652     1.16969    -0.40809
H     -2.77718     2.46251    -1.47479
C     -3.35520    -3.19593    -2.89304
C     -3.31414    -3.56412    -4.34818
O     -3.61140    -3.96960    -2.00124
O     -3.04140    -1.90866    -2.68542
H     -3.14797    -1.70405    -1.73523
H     -3.82081    -4.51130    -4.49914
H     -3.76872    -2.78412    -4.95425
H     -2.27151    -3.66432    -4.64569
