 56
-1604.7964080251206
C      3.52574    -0.36971    -1.70114
C      5.00911    -0.44947    -1.56170
O      2.96995     0.39769    -2.48308
O      2.85111    -1.16259    -0.90346
H      1.87229    -1.01886    -1.01682
H      5.29968    -1.39889    -1.12572
H      5.47530    -0.29790    -2.53043
H      5.31368     0.36137    -0.90212
C     -0.23502    -0.27109    -2.24525
C     -1.71577    -0.29249    -2.43136
O      0.31262    -0.66308    -1.22069
O      0.42972     0.21160    -3.26778
H      1.39087     0.26081    -3.05458
H     -2.18478     0.06796    -1.52191
H     -2.00537     0.31826    -3.28024
H     -2.03367    -1.32031    -2.58735
C      1.29307     0.35037     2.49247
C      2.60831    -0.34699     2.62204
O      1.17947     1.56337     2.40492
O      0.25850    -0.46531     2.47295
H     -3.84646     2.98255     2.00552
H      2.70659    -1.05919     1.80976
H      3.40698     0.38288     2.58284
H      2.63350    -0.89166     3.56463
C     -1.22437    -4.00421    -0.55918
C     -1.06981    -3.21328     0.69970
O     -2.07727    -3.81904    -1.39395
O     -0.30115    -4.97963    -0.70120
H     -0.50835    -5.42157    -1.53353
H     -2.03099    -3.14129     1.19494
H     -0.32567    -3.64521     1.36231
H     -0.76704    -2.20573     0.42321
C     -4.41722    -0.76721     0.28405
C     -5.19402    -1.96662    -0.17209
O     -4.61044     0.36489    -0.08604
O     -3.43828    -1.10171     1.14267
H     -2.99338    -0.28586     1.43201
H     -5.40640    -2.62026     0.66990
H     -6.11276    -1.64089    -0.64789
H     -4.59257    -2.52631    -0.88633
C     -1.90361     2.28270     1.59006
C     -3.15655     2.96883     1.16451
O     -1.87659     1.11621     1.97943
O     -0.81798     3.01578     1.52301
H     -0.04047     2.49218     1.84822
H     -0.56225     0.05448     2.31631
H     -2.94063     3.97615     0.82812
H     -3.63584     2.38459     0.38300
C      3.02453     2.84988     0.02942
C      2.81536     4.06597     0.87591
O      3.92299     2.05497     0.17650
O      2.08462     2.72622    -0.91920
H      2.28804     1.95417    -1.47121
H      2.61431     4.93059     0.24894
H      1.95059     3.90501     1.51791
H      3.69342     4.23481     1.49034
