 32
-917.0164538787153
C     -1.03595    -3.93767    -1.08877
C     -1.27148    -5.23961    -1.80150
O     -0.05991    -3.66755    -0.43566
O     -2.06061    -3.08675    -1.26672
H     -1.84953    -2.26772    -0.79405
H     -1.40237    -5.05757    -2.86669
H     -0.42726    -5.89930    -1.63816
H     -2.18470    -5.70236    -1.43160
C     -2.66795     2.48661    -0.63028
C     -3.66220     3.55961    -0.95365
O     -1.46335     2.62467    -0.76625
O     -3.22556     1.37665    -0.18632
H     -2.53975     0.69177    -0.02758
H     -4.29969     3.22297    -1.76817
H     -4.29744     3.74068    -0.09038
H     -3.14332     4.46599    -1.23988
C      3.97680     1.35856     1.23171
C      5.29504     2.05693     1.42103
O      3.75462     0.20814     1.51336
O      3.05631     2.18369     0.70099
H      2.22631     1.69076     0.58630
H      5.15754     2.93365     2.05060
H      6.00274     1.37355     1.87471
H      5.66820     2.39774     0.45720
C     -0.10036    -0.20274     0.47617
C      0.87158    -1.11525     1.13030
O     -1.24719    -0.51191     0.18691
O      0.38043     1.00897     0.22237
H     -0.31490     1.59986    -0.17876
H      1.35914    -0.60351     1.95242
H      0.36361    -2.01682     1.44443
H      1.64641    -1.37504     0.41099
