 48
-1375.540573163106
C     -2.10210     0.43656    -1.44250
C     -3.16505     1.48859    -1.50923
O     -1.67547    -0.18091    -2.38792
O     -1.64907     0.24912    -0.19274
H     -1.03645    -0.50093    -0.20359
H     -3.95601     1.26506    -0.79631
H     -2.73157     2.44908    -1.23575
H     -3.56804     1.53796    -2.51502
C      0.47399    -2.36302    -1.37898
C     -0.31009    -3.07926    -2.41549
O      0.06779    -2.15015    -0.23067
O      1.64496    -1.93754    -1.77820
H      2.15504    -1.50434    -1.04312
H     -1.05595    -2.37854    -2.79200
H      0.34698    -3.38716    -3.22169
H     -0.82582    -3.92414    -1.96857
C      1.07691     2.58562    -1.07976
C      1.60696     1.72519    -2.18223
O      1.71639     2.83074    -0.06717
O     -0.13439     3.04237    -1.30666
H     -0.44903     3.61542    -0.55723
H      2.52868     1.25930    -1.85443
H      0.86518     0.97557    -2.44019
H      1.79332     2.34252    -3.05974
C     -0.27769     4.87929     1.65972
C     -0.80456     5.78850     2.73170
O     -0.94586     4.58258     0.67848
O      0.94302     4.44571     1.87197
H      1.23730     3.83839     1.14046
H     -0.06770     5.91639     3.51604
H     -1.05738     6.74789     2.28651
H     -1.72139     5.36494     3.13451
C      2.70972    -0.38441     1.23136
C      3.55710     0.45504     2.12907
O      3.06132    -0.74808     0.12166
O      1.52181    -0.67451     1.73541
H      1.01674    -1.22672     1.10800
H      3.40095     1.49747     1.85688
H      3.26149     0.30969     3.16245
H      4.60394     0.21154     1.97752
C     -1.91674    -5.18183     0.71201
C     -2.57179    -6.18585     1.61556
O     -1.87623    -5.27143    -0.49041
O     -1.37170    -4.16218     1.39181
H     -0.97118    -3.55017     0.75669
H     -2.50776    -5.87764     2.65310
H     -3.61039    -6.30043     1.31404
H     -2.08584    -7.14891     1.47523
