 40
-1146.2807506712975
C      0.23372    -1.75380    -2.45544
C     -0.49174    -2.98422    -2.89381
O     -0.29329    -0.72703    -2.07236
O      1.55395    -1.88600    -2.52098
H      1.96710    -1.06377    -2.20753
H     -0.88522    -3.47929    -2.00834
H     -1.33281    -2.70176    -3.52196
H      0.18373    -3.64824    -3.42091
C      1.43451    -0.23449     1.16738
C      1.12881    -0.94776     2.43976
O      0.68996     0.55958     0.61461
O      2.61425    -0.57176     0.66675
H      2.77723    -0.09113    -0.17065
H      0.71957    -1.92364     2.17860
H      2.04608    -1.09137     3.00434
H      0.39321    -0.39390     3.01017
C      2.46362     1.80206    -1.92875
C      3.01579     2.71312    -2.98269
O      2.83635     0.63857    -1.80933
O      1.55453     2.34667    -1.16006
H      1.20984     1.69043    -0.50573
H      2.67469     2.36258    -3.95467
H      2.68394     3.73141    -2.81965
H      4.10003     2.64983    -2.97398
C     -2.07282    -1.71773     0.49361
C     -3.20902    -1.87041     1.45655
O     -1.30981    -2.60485     0.19765
O     -1.96876    -0.46543     0.02097
H     -1.26572    -0.44258    -0.66908
H     -4.12862    -1.47485     1.02823
H     -3.33359    -2.91927     1.70610
H     -2.97921    -1.29831     2.35434
C     -1.98893     1.74500     2.84855
C     -2.55501     2.88000     3.65715
O     -1.54400     0.72922     3.33121
O     -2.03785     1.98128     1.53613
H     -1.67168     1.21436     1.06191
H     -2.73006     3.74887     3.03218
H     -3.49018     2.55489     4.10930
H     -1.86700     3.11725     4.46416
