 48
-1375.5513159389777
C     -4.43391    -3.65525     3.05723
C     -5.05067    -4.49986     4.13403
O     -5.11036    -3.11437     2.19516
O     -3.12558    -3.55696     3.13525
H     -2.76540    -2.98481     2.40487
H     -5.64416    -5.28384     3.67091
H     -4.28300    -4.92567     4.76942
H     -5.72786    -3.88202     4.71875
C      1.85666    -0.62293     1.21974
C      1.04384    -0.56924     2.47240
O      3.05583    -0.39264     1.19984
O      1.16053    -0.92124     0.14416
H      1.70077    -0.76611    -0.67199
H      1.66279    -0.85311     3.31966
H      0.71142     0.45941     2.60929
H      0.17408    -1.21212     2.37912
C      2.40453     2.95512    -0.21569
C      3.54074     3.29504     0.69041
O      2.44786     3.11332    -1.42531
O      1.36230     2.44782     0.40484
H      0.61446     2.29526    -0.23048
H      4.26291     3.90345     0.15746
H      3.17907     3.81103     1.57516
H      4.01245     2.36636     1.00517
C     -0.65118     2.42543    -2.44565
C     -1.86912     2.29361    -3.31104
O     -0.62196     2.05158    -1.28049
O      0.36919     2.98136    -3.05586
H      1.14881     3.04641    -2.44448
H     -2.56187     1.59861    -2.85822
H     -2.34623     3.26756    -3.40199
H     -1.58816     1.96200    -4.30683
C      3.70359     0.16256    -1.99752
C      4.36114     0.67237    -3.23968
O      2.58611    -0.32864    -1.98544
O      4.43094     0.33307    -0.91518
H      3.95309    -0.01651    -0.11886
H      5.42664     0.46083    -3.22179
H      3.89007     0.23039    -4.11058
H      4.22355     1.75222    -3.26737
C     -2.82393    -1.49899     0.32354
C     -2.19902    -0.63787    -0.72754
O     -2.16904    -2.02250     1.21473
O     -4.12673    -1.61956     0.21335
H     -4.49615    -2.17876     0.94856
H     -2.31377     0.40293    -0.43980
H     -1.14139    -0.85484    -0.79788
H     -2.69861    -0.79398    -1.67723
