 80
-2292.5801162595185
C      1.19085     2.27577    -1.18480
C     -0.29703     2.39848    -1.20928
O      1.85533     2.46668    -0.17656
O      1.73013     1.93598    -2.33957
H      2.70465     1.85352    -2.24570
H     -0.57903     3.43862    -1.06942
H     -0.69341     2.01338    -2.13802
H     -0.69716     1.85367    -0.36284
C     -4.48698     2.07064    -1.03002
C     -5.45813     3.20788    -1.04025
O     -4.59618     1.12965    -0.24564
O     -3.51874     2.18284    -1.89926
H     -2.91142     1.39470    -1.87344
H     -5.25931     3.82623    -0.16685
H     -5.33555     3.79609    -1.94347
H     -6.46903     2.81995    -0.95909
C      0.17588    -5.84216    -0.55684
C     -0.76860    -7.00184    -0.66901
O      0.64988    -5.49147     0.51425
O      0.43278    -5.24183    -1.69806
H      1.07401    -4.50441    -1.55176
H     -1.61159    -6.83381    -0.00347
H     -1.10726    -7.11656    -1.69194
H     -0.26250    -7.90294    -0.33216
C     -0.72714    -0.75255     2.26423
C     -1.91609    -0.16486     2.96063
O     -0.34193    -0.40697     1.16926
O     -0.12374    -1.70445     2.97888
H      0.58396    -2.09634     2.44001
H     -2.51957     0.34272     2.21829
H     -2.49184    -0.93520     3.46616
H     -1.58346     0.56316     3.69480
C      2.04293    -2.57122    -0.11681
C      2.59994    -1.19586    -0.00245
O      2.00731    -3.18303    -1.16816
O      1.57719    -3.08674     1.01374
H      1.26676    -4.02278     0.85985
H      1.91117    -0.56174     0.54633
H      3.55550    -1.21782     0.51514
H      2.75855    -0.80527    -0.99869
C     -4.64053     2.86503     2.89099
C     -4.70542     3.13122     4.35611
O     -4.12575     3.60990     2.07431
O     -5.19878     1.71472     2.52929
H     -5.12894     1.61839     1.56403
H     -5.30857     2.37861     4.84963
H     -3.68843     3.12555     4.74443
H     -5.11228     4.12688     4.51783
C     -0.94744     3.14405     2.75078
C      0.54369     3.01101     2.68213
O     -1.58403     3.13506     3.77749
O     -1.51366     3.25893     1.54254
H     -2.46876     3.43753     1.66953
H      0.97733     3.88659     2.20362
H      0.94341     2.90147     3.68452
H      0.81736     2.15600     2.07073
C     -2.37215    -1.12385    -1.39940
C     -1.54826    -2.35556    -1.60159
O     -2.11852    -0.04893    -1.91350
O     -3.41193    -1.31664    -0.60977
H     -3.89392    -0.47082    -0.48866
H     -2.13597    -3.12377    -2.09666
H     -0.67392    -2.11544    -2.19242
H     -1.24426    -2.74811    -0.63439
C      4.99532     1.61423    -0.86920
C      6.46901     1.40913    -0.74907
O      4.40232     1.59956    -1.94556
O      4.37749     1.79243     0.26956
H      3.42422     2.02330     0.13066
H      6.65070     0.33471    -0.75683
H      6.96662     1.84590    -1.60939
H      6.83418     1.83391     0.17965
C      4.97898    -1.70956    -2.62684
C      5.12770    -3.04923    -3.28627
O      5.35146    -1.46075    -1.50436
O      4.35621    -0.82920    -3.42115
H      4.29490     0.03015    -2.97084
H      4.25506    -3.64662    -3.02208
H      5.16519    -2.93906    -4.36543
H      6.01469    -3.54818    -2.90793
