 48
-1375.5482064704568
C     -2.98976     2.24718     3.84906
C     -3.64098     2.43766     5.19416
O     -3.43685     2.67178     2.81017
O     -1.85512     1.54904     3.94701
H     -1.46003     1.43483     3.06123
H     -2.96796     2.98358     5.85230
H     -4.56785     2.98563     5.07170
H     -3.83294     1.46844     5.64992
C      1.51730    -1.81964     0.50323
C      0.44846    -1.85700     1.53834
O      1.94450    -0.76876     0.02314
O      1.95139    -2.99302     0.13142
H      2.64281    -2.90670    -0.57856
H     -0.47619    -2.16188     1.05041
H      0.68787    -2.58770     2.30668
H      0.31127    -0.86798     1.95603
C     -0.36067     2.10905     0.62051
C     -0.90309     3.49348     0.49291
O     -0.72658     1.28399     1.43592
O      0.57084     1.83708    -0.28300
H      0.87494     0.92525    -0.15894
H     -0.08318     4.20727     0.43776
H     -1.46415     3.55957    -0.43771
H     -1.55589     3.71049     1.33002
C     -3.00601     0.13445    -0.56850
C     -4.09075     0.56684     0.36051
O     -2.50405    -0.98047    -0.53640
O     -2.61604     1.06576    -1.41717
H     -1.94822     0.69780    -2.05193
H     -4.58576    -0.30530     0.77263
H     -3.65049     1.14104     1.17700
H     -4.79692     1.21313    -0.15125
C      4.56747    -1.80442    -1.74708
C      5.88908    -1.85135    -2.45556
O      3.78576    -2.74564    -1.72596
O      4.32385    -0.65166    -1.16145
H      3.44264    -0.67062    -0.71056
H      6.02916    -2.82311    -2.91314
H      5.91910    -1.07109    -3.21285
H      6.68808    -1.65004    -1.74588
C     -0.17600    -0.95955    -2.87898
C      1.04565    -1.33445    -3.65731
O     -0.82076     0.05289    -3.08999
O     -0.46687    -1.82709    -1.93084
H     -1.26748    -1.52114    -1.42513
H      1.83806    -1.59535    -2.96194
H      0.83450    -2.21430    -4.26123
H      1.35158    -0.51527    -4.29667
