 64
-1834.0589491933938
C     -4.19842    -1.34518    -0.59193
C     -4.84559    -2.68705    -0.51780
O     -4.01189    -0.64243     0.40090
O     -3.84100    -0.97404    -1.79542
H     -3.31974    -0.13624    -1.78057
H     -5.12054    -3.02728    -1.50993
H     -4.12481    -3.37318    -0.07466
H     -5.71257    -2.63668     0.13520
C      2.98886     2.52568     1.55584
C      2.88193     3.94039     2.01829
O      3.16398     1.58359     2.32412
O      2.86781     2.35229     0.25888
H      3.08069     1.42283    -0.00491
H      2.95736     4.61949     1.17686
H      1.91489     4.05309     2.50613
H      3.65649     4.13395     2.75528
C      0.63658    -1.73856    -1.51988
C     -0.58753    -2.16727    -2.25589
O      1.23775    -2.41644    -0.71960
O      1.03009    -0.49700    -1.84733
H      1.84882    -0.29663    -1.36713
H     -1.26732    -1.33406    -2.39012
H     -0.30864    -2.51255    -3.25063
H     -1.06116    -2.97953    -1.71554
C      3.90889    -1.04535     0.29771
C      4.33780    -2.38708    -0.19209
O      3.49680    -0.15704    -0.44545
O      4.00358    -0.88550     1.59644
H      3.68883     0.00637     1.87680
H      4.83357    -2.28067    -1.15175
H      4.98058    -2.86341     0.53989
H      3.43639    -2.98156    -0.33641
C     -1.49792    -2.53876     1.81640
C     -0.14483    -2.80822     2.39258
O     -2.02152    -3.19390     0.94697
O     -2.09251    -1.46873     2.37116
H     -2.89774    -1.28923     1.86438
H      0.55345    -2.98268     1.57747
H      0.17657    -1.97354     3.00559
H     -0.20643    -3.71669     2.99290
C     -1.84946     1.67957    -0.63239
C     -0.70017     2.63421    -0.61209
O     -2.29313     1.18498    -1.66471
O     -2.36306     1.41736     0.54658
H     -3.02993     0.68542     0.49417
H      0.20907     2.07303    -0.82064
H     -0.82412     3.38212    -1.39163
H     -0.62992     3.09277     0.36798
C     -0.14342     1.62138     3.42372
C     -1.46108     1.28749     4.04618
O      0.13133     2.69138     2.93357
O      0.71907     0.59206     3.45514
H      1.57302     0.87927     3.08973
H     -1.46845     1.65341     5.07395
H     -2.24534     1.79268     3.49217
H     -1.61382     0.21613     4.04006
C     -0.21339     0.76302    -4.51196
C      1.06238     0.89438    -5.30555
O     -0.98211    -0.15845    -4.59554
O     -0.38908     1.81141    -3.68664
H     -1.13947     1.61206    -3.10263
H      1.14073     1.89453    -5.72802
H      1.91512     0.74349    -4.64436
H      1.07932     0.14890    -6.09329
