 32
-917.0166047345919
C      1.80598    -1.49780    -2.94551
C      2.94772    -2.42936    -3.23907
O      1.67535    -0.40399    -3.43813
O      0.93379    -2.02378    -2.07329
H      0.21298    -1.38787    -1.92763
H      3.87235    -1.85942    -3.25695
H      2.99497    -3.22697    -2.50557
H      2.80278    -2.85276    -4.23141
C     -1.40685     0.82461    -1.73450
C     -1.21465     1.02220    -3.20048
O     -1.15525    -0.24376    -1.17831
O     -1.85673     1.87155    -1.09387
H     -1.95571     1.69139    -0.11409
H     -1.58230     1.99648    -3.50211
H     -0.15504     0.91781    -3.42900
H     -1.73315     0.22614    -3.72850
C      1.62995     0.50401     2.64806
C      1.49660     0.62495     1.16041
O      0.72517     0.55546     3.44230
O      2.90712     0.31657     3.03794
H      2.89267     0.25107     4.00065
H      1.47789    -0.37082     0.72049
H      0.55773     1.11184     0.92917
H      2.32084     1.17416     0.71824
C     -2.14335     0.36588     2.04535
C     -2.49495     0.20757     3.48282
O     -2.08927     1.44150     1.46939
O     -1.87420    -0.77783     1.44009
H     -1.65681    -0.60933     0.49875
H     -1.56518     0.14845     4.04573
H     -3.06258     1.06756     3.82156
H     -3.04884    -0.71502     3.62538
