 56
-1604.812157966616
C      1.77998     3.33972    -1.09735
C      1.04575     4.49733    -1.71139
O      2.70134     3.43623    -0.32666
O      1.26952     2.15769    -1.47846
H      1.74329     1.46113    -1.00168
H      1.65465     5.39271    -1.63202
H      0.79812     4.29285    -2.75092
H      0.11783     4.65218    -1.16120
C     -3.97723    -4.20755    -1.06322
C     -4.75349    -5.45396    -0.75563
O     -3.36558    -3.59770    -0.19582
O     -3.99322    -3.85084    -2.32569
H     -3.49148    -3.00019    -2.46053
H     -5.49507    -5.23453     0.00845
H     -5.22806    -5.83445    -1.65237
H     -4.07071    -6.19388    -0.34377
C      0.03954     0.89656     2.04592
C     -0.25299    -0.56510     1.97105
O      0.92991     1.35993     2.74194
O     -0.72870     1.63743     1.27765
H     -0.04669     6.63214     2.78137
H     -0.06984    -0.91415     0.96024
H      0.38774    -1.09749     2.66188
H     -1.29799    -0.76123     2.18196
C      0.73792    -3.07879    -1.01965
C     -0.14566    -4.09355    -1.66839
O      1.36138    -3.31037     0.00320
O      0.77219    -1.91884    -1.64117
H      1.38050    -1.29896    -1.16897
H      0.46475    -4.90855    -2.05070
H     -0.81258    -4.49839    -0.91234
H     -0.71183    -3.63962    -2.47207
C     -2.27748    -0.87577    -1.74326
C     -1.85909     0.53389    -1.99695
O     -2.65677    -1.62506    -2.62999
O     -2.17916    -1.25570    -0.48255
H     -2.59620    -2.14874    -0.36018
H     -0.80600     0.52603    -2.26829
H     -2.42770     0.93718    -2.83126
H     -1.98818     1.13680    -1.10690
C      0.63009     4.65114     2.43413
C      0.88567     6.12293     2.55089
O     -0.24537     4.20623     1.70291
O      1.42406     3.90415     3.16080
H      1.23829     2.93852     3.01532
H     -0.54020     2.60328     1.42211
H      1.63255     6.31635     3.31185
H      1.23189     6.48563     1.58485
C      3.10083    -0.58485     0.66534
C      4.06681     0.37064     1.27752
O      2.35446    -0.28670    -0.26647
O      3.08792    -1.76146     1.23213
H      2.44339    -2.36622     0.77251
H      4.99626    -0.14190     1.51420
H      4.23307     1.21071     0.61527
H      3.63100     0.72839     2.20919
