 64
-1834.0749286710172
C     -2.42100    -3.38332    -0.75498
C     -1.74502    -4.49524    -1.49149
O     -2.45117    -3.34589     0.46557
O     -2.94343    -2.46243    -1.52721
H     -3.29149    -1.71048    -0.98406
H     -1.93761    -5.43952    -0.99353
H     -2.06485    -4.52185    -2.52566
H     -0.67159    -4.31824    -1.46221
C      2.65826     2.59389     0.44562
C      2.15980     3.99223     0.63102
O      2.52165     1.98306    -0.60475
O      3.22827     2.08363     1.51067
H      3.51864     1.15058     1.33349
H      2.00716     4.45706    -0.33433
H      1.20244     3.95379     1.14529
H      2.84502     4.56996     1.24194
C      1.38926    -3.04146    -3.37110
C      1.74622    -3.38125    -4.78771
O      0.45761    -2.30487    -3.08760
O      2.16244    -3.60697    -2.46789
H      1.87102    -3.34833    -1.55806
H      0.93441    -3.95974    -5.22313
H      1.83655    -2.46171    -5.36000
H      2.66954    -3.94817    -4.82416
C      4.07630    -0.91556    -0.08661
C      4.84336    -2.17326    -0.32623
O      3.98000    -0.39427     1.01172
O      3.49692    -0.43695    -1.16946
H      3.10183     0.45102    -0.98640
H      4.14225    -2.95878    -0.59893
H      5.53312    -2.03418    -1.15484
H      5.38084    -2.45918     0.57171
C     -3.67572    -0.33391     1.17162
C     -4.10748     0.88230     1.93211
O     -3.83001    -0.46036    -0.03225
O     -3.09437    -1.24144     1.92746
H     -2.86101    -2.04067     1.39253
H     -3.23279     1.33110     2.39438
H     -4.58151     1.59030     1.26345
H     -4.79450     0.59334     2.72495
C     -1.36278     4.58340     2.77656
C     -1.59875     5.41859     4.00031
O     -1.23490     5.08105     1.66703
O     -1.31656     3.28952     3.00850
H     -1.17640     2.78232     2.16574
H     -0.93511     6.27802     3.98205
H     -2.62122     5.78915     3.97212
H     -1.44868     4.82938     4.89788
C     -1.12655     2.45686    -0.37809
C     -1.14458     1.58637    -1.58611
O     -1.00151     2.00534     0.75300
O     -1.21626     3.74258    -0.62687
H     -1.23405     4.25835     0.22074
H     -1.53773     0.60809    -1.32464
H     -1.71349     2.05189    -2.38483
H     -0.11273     1.44070    -1.90354
C      0.67819    -1.90680     0.20812
C      0.47064    -1.42270     1.60076
O      1.36414    -2.87462    -0.06546
O      0.03513    -1.20733    -0.70458
H      0.17251    -1.59954    -1.60211
H     -0.20780    -2.12421     2.08972
H      1.42372    -1.42792     2.12713
H      0.02138    -0.43583     1.58898
