 72
-2063.32192804583
C      3.74838     0.03478    -2.19228
C      4.76492     0.95841    -1.60246
O      3.87900    -1.17780    -2.17868
O      2.70384     0.64391    -2.72073
H      2.06401    -0.02756    -3.07122
H      5.05349     0.57995    -0.62613
H      5.64772     0.95414    -2.24165
H      4.36515     1.96214    -1.53035
C     -0.23338     3.50358    -1.54777
C      0.98969     3.82660    -2.33496
O     -0.21972     3.32108    -0.33215
O     -1.32561     3.41365    -2.25759
H     -2.09822     3.17492    -1.68362
H      1.79833     4.08022    -1.66092
H      1.26693     2.96263    -2.93290
H      0.77608     4.64825    -3.01518
C     -3.28441     2.47366     0.56340
C     -4.50556     2.10353     1.34038
O     -3.29127     2.64773    -0.64431
O     -2.19153     2.59193     1.29894
H     -1.43154     2.86848     0.73651
H     -4.67453     2.84064     2.12260
H     -5.35789     2.05603     0.67276
H     -4.34796     1.14261     1.82451
C     -2.13172    -1.27261    -0.60835
C     -1.75668    -0.03108    -1.33489
O     -1.47324    -2.29644    -0.65683
O     -3.24652    -1.16420     0.09206
H     -3.36133    -1.96038     0.65448
H     -1.37075     0.67680    -0.60618
H     -0.98475    -0.24438    -2.06247
H     -2.63651     0.40826    -1.79476
C      2.27135    -0.75784     1.06167
C      1.94676    -2.21008     0.87731
O      3.26829    -0.32133     1.57714
O      1.31398     0.03957     0.54595
H      1.50766     0.96327     0.77635
H      2.30858    -2.52051    -0.10128
H      2.43755    -2.79712     1.64849
H      0.87272    -2.36166     0.90818
C     -2.72464    -4.45905     1.44935
C     -3.13118    -5.71452     2.16060
O     -3.17986    -3.35971     1.74553
O     -1.84015    -4.63006     0.49578
H     -1.65152    -3.76913     0.04389
H     -2.90170    -5.60479     3.21789
H     -4.20767    -5.83697     2.07363
H     -2.61215    -6.57042     1.74644
C      3.06690     3.18093     1.41146
C      3.91338     2.68189     2.53954
O      3.44113     3.86223     0.49327
O      1.77810     2.75053     1.50412
H      1.23010     3.23343     0.86315
H      4.88595     3.16196     2.50302
H      3.42407     2.88169     3.49158
H      4.02790     1.60314     2.44601
C     -1.67766    -0.27426     3.35500
C     -0.66409     0.82089     3.50980
O     -2.82635    -0.21311     3.70807
O     -1.15398    -1.37794     2.77281
H     -1.86700    -2.02643     2.67192
H      0.13210     0.50106     4.17888
H     -0.21388     1.04892     2.54875
H     -1.14171     1.71558     3.89538
C      1.14949    -2.46950    -3.44627
C      0.06858    -3.41469    -3.87290
O      1.05137    -1.25575    -3.55807
O      2.19219    -3.06362    -2.91093
H      2.86821    -2.38773    -2.64933
H     -0.55487    -2.94487    -4.62560
H      0.50149    -4.34103    -4.23626
H     -0.54251    -3.63832    -3.00081
