 56
-1604.80605107819
C     -3.26083     0.65870     2.09270
C     -3.83881     0.00705     3.31356
O     -3.89749     1.29248     1.28759
O     -1.94310     0.43226     1.97331
H     -1.61428     0.87569     1.17758
H     -3.89700    -1.06732     3.14109
H     -3.19691     0.17302     4.17602
H     -4.83488     0.39655     3.49817
C      1.80130    -1.36286     2.00649
C      0.53320    -1.63250     2.76064
O      2.41656    -2.20193     1.38767
O      2.17731    -0.08273     2.08102
H      3.00828     0.02844     1.58184
H      0.79042    -2.09451     3.71495
H     -0.00739    -0.71106     2.93655
H     -0.07545    -2.33105     2.19391
C     -0.95381     1.86277    -1.39378
C     -2.38011     2.03720    -1.78167
O     -0.57947     1.66310    -0.24019
O     -0.11328     1.93041    -2.39713
H      3.61813     4.40932     0.36245
H     -2.49648     2.94038    -2.37785
H     -2.67302     1.18638    -2.39382
H     -2.99573     2.07258    -0.89135
C     -0.52767    -2.00664    -1.21487
C      0.94978    -2.14817    -1.34065
O     -1.16591    -2.50351    -0.29873
O     -1.08211    -1.26137    -2.14961
H     -2.06892    -1.27819    -2.04577
H      1.28733    -1.93620    -2.34797
H      1.38753    -1.43122    -0.65273
H      1.25851    -3.13339    -1.01021
C     -4.26882    -1.53770    -0.75217
C     -5.73063    -1.27544    -0.56907
O     -3.68241    -1.30354    -1.79895
O     -3.67149    -2.01480     0.31948
H     -2.71395    -2.19594     0.12868
H     -6.19311    -2.07930    -0.00314
H     -5.83025    -0.35001    -0.00475
H     -6.20496    -1.16429    -1.53783
C      2.54734     2.75291    -0.44449
C      3.81447     3.50918    -0.20974
O      2.39037     1.99801    -1.40142
O      1.63972     2.93569     0.47921
H      0.82149     2.41606     0.27530
H      0.81234     1.85449    -2.07003
H      4.47430     2.86155     0.36545
H      4.29158     3.73871    -1.15677
C      4.56192    -0.69658    -0.33579
C      5.22756    -2.02376    -0.21541
O      4.47311     0.11956     0.56325
O      4.01692    -0.48153    -1.53031
H      3.57792     0.38286    -1.50131
H      4.51652    -2.70025     0.25849
H      5.49689    -2.40636    -1.19348
H      6.09604    -1.93849     0.43075
