 48
-1375.5414480169418
C     -1.65345     0.65369     0.35880
C     -2.65207     1.75934     0.17387
O     -1.28500    -0.08513    -0.52070
O     -1.18769     0.60471     1.61682
H     -0.50828    -0.08420     1.66021
H     -3.32786     1.50472    -0.63773
H     -3.20791     1.93393     1.09071
H     -2.12943     2.67585    -0.08994
C      0.66115    -2.45242    -1.54589
C     -0.30448    -2.81022    -2.62056
O      0.59108    -2.89186    -0.39896
O      1.60694    -1.62259    -1.91696
H      2.16932    -1.38033    -1.13801
H     -0.33909    -3.89070    -2.72758
H     -1.29982    -2.49717    -2.31070
H     -0.02677    -2.33045    -3.55262
C      0.93657     2.72301    -1.11650
C      1.44505     1.75174    -2.12770
O      1.28981     2.71097     0.05479
O      0.05535     3.57210    -1.59404
H     -0.25552     4.19035    -0.88209
H      1.70623     2.26456    -3.05141
H      2.29715     1.21821    -1.72506
H      0.65245     1.03840    -2.33852
C     -0.32400     5.18752     1.49605
C     -0.77883     6.22258     2.48408
O     -0.82499     5.09084     0.38428
O      0.63967     4.40564     1.92886
H      0.89309     3.75064     1.22260
H     -0.26272     6.09621     3.42857
H     -0.58188     7.21082     2.07458
H     -1.85405     6.13459     2.61824
C      2.28913    -0.59543     1.27207
C      2.77094     0.32857     2.34232
O      2.90491    -0.81690     0.24660
O      1.10295    -1.14132     1.52094
H      0.90345    -1.83464     0.83708
H      2.54906    -0.07532     3.32609
H      3.83496     0.49671     2.22205
H      2.24371     1.27592     2.23358
C     -1.89539    -5.61301    -0.54392
C     -2.50722    -6.90605    -0.07887
O     -2.35964    -4.89702    -1.39563
O     -0.75227    -5.35250     0.10753
H     -0.39809    -4.49600    -0.19251
H     -2.74143    -6.84055     0.98200
H     -3.40863    -7.10301    -0.64718
H     -1.79434    -7.71790    -0.20822
