 64
-1834.065166219472
C     -5.29303    -2.63203    -2.53910
C     -6.34511    -3.47727    -3.19816
O     -5.27914    -2.44601    -1.33090
O     -4.40590    -2.12654    -3.36792
H     -3.74396    -1.57301    -2.87463
H     -6.30706    -4.47862    -2.77617
H     -7.32434    -3.06510    -2.96739
H     -6.18832    -3.50989    -4.26993
C      3.77981     3.51022     0.21867
C      3.74254     4.99302     0.06700
O      3.07658     2.75219    -0.44780
O      4.61223     3.08313     1.13428
H      4.61633     2.09166     1.17977
H      4.66433     5.43068     0.43397
H      3.55966     5.25244    -0.97084
H      2.90203     5.35423     0.66030
C      0.80610    -1.99971    -2.23500
C      0.03487    -2.60057    -3.36591
O      0.59057    -2.22647    -1.05809
O      1.77103    -1.17921    -2.62772
H      2.21076    -0.79222    -1.84849
H      0.02250    -3.68256    -3.26491
H     -0.99503    -2.25340    -3.30742
H      0.47521    -2.31470    -4.31377
C      3.88866    -0.31224     0.54451
C      3.78656    -1.77316     0.80829
O      4.58169     0.44016     1.20034
O      3.14970     0.11803    -0.47382
H      3.12883     1.10655    -0.49179
H      4.75973    -2.16369     1.09410
H      3.10158    -1.91146     1.64269
H      3.39559    -2.28590    -0.06275
C     -2.72300    -0.35611    -0.86375
C     -1.80655     0.64513    -0.25122
O     -2.66109    -0.68366    -2.03953
O     -3.59107    -0.87097    -0.02166
H     -4.22400    -1.47137    -0.49527
H     -2.36366     1.31702     0.39052
H     -1.08546     0.12890     0.37523
H     -1.28009     1.19654    -1.01691
C      0.89921     0.86320     2.73031
C      1.92915     1.72226     3.40815
O     -0.20914     1.24117     2.43831
O      1.35428    -0.36682     2.47291
H      0.61244    -0.95039     2.20283
H      1.64334     1.85447     4.45096
H      2.90392     1.25036     3.35787
H      1.94684     2.70048     2.93714
C     -0.02874     3.97060     0.72673
C     -1.44393     3.94766     1.19429
O      0.86776     4.56365     1.28089
O      0.16829     3.23929    -0.37983
H      1.11715     3.26402    -0.56913
H     -1.65061     4.84230     1.77436
H     -2.12202     3.87109     0.34958
H     -1.56964     3.07419     1.83188
C     -1.46262    -2.87295     1.46910
C     -2.58653    -3.41563     2.29821
O     -0.63551    -2.08937     1.89012
O     -1.47374    -3.30729     0.22013
H     -0.71432    -2.90773    -0.25768
H     -3.49759    -2.89152     2.01669
H     -2.72628    -4.47407     2.09725
H     -2.38771    -3.24678     3.35137
