 72
-2063.3287544488007
C      4.06250    -0.09365    -1.69274
C      3.12446    -0.83076    -2.59088
O      4.09532    -0.26384    -0.47496
O      4.84766     0.74932    -2.31329
H      5.41850     1.26105    -1.67700
H      2.16060    -0.32037    -2.58728
H      3.51688    -0.85309    -3.60217
H      2.95859    -1.82657    -2.19778
C     -1.15809    -0.27998    -2.61825
C     -1.19310    -1.68328    -3.12616
O     -0.21201     0.47519    -2.78787
O     -2.24326     0.08584    -1.95860
H     -2.20022     1.03551    -1.70653
H     -0.47676    -2.26710    -2.55407
H     -2.18589    -2.09854    -3.00939
H     -0.88619    -1.68724    -4.16982
C      0.25957     2.08264     1.43968
C      1.73300     1.83042     1.35379
O     -0.23384     3.14567     1.73507
O     -0.46273     1.00568     1.11202
H     -1.41502     1.19759     1.25568
H      2.03177     1.05418     2.05447
H      1.96889     1.47621     0.35244
H      2.28778     2.73974     1.55635
C     -3.90705    -2.60591     0.46663
C     -4.52922    -1.25595     0.31126
O     -3.79698    -3.15607     1.55153
O     -3.48664    -3.14075    -0.66431
H     -3.13936    -4.06046    -0.50520
H     -5.61027    -1.37442     0.38136
H     -4.19956    -0.60961     1.11967
H     -4.26326    -0.83381    -0.64933
C     -3.38110     2.88715     1.87387
C     -3.71579     3.51553     3.19470
O     -3.00271     1.74158     1.73528
O     -3.52942     3.73362     0.86352
H     -3.15571     3.33580     0.05474
H     -2.81662     4.00780     3.56314
H     -4.49192     4.26230     3.06594
H     -4.01451     2.75492     3.90772
C     -2.18760    -5.97198     0.93593
C     -1.44643    -7.26600     1.09951
O     -2.49777    -5.53870    -0.16490
O     -2.45216    -5.34843     2.06195
H     -2.98529    -4.52519     1.89054
H     -2.00456    -8.05768     0.60651
H     -0.48588    -7.18304     0.59648
H     -1.30470    -7.49257     2.14976
C      6.13135     2.27689     0.56118
C      6.83765     3.28465     1.41727
O      6.33247     2.18027    -0.63858
O      5.27753     1.51840     1.22195
H      4.87358     0.85594     0.61765
H      6.61062     4.27976     1.04384
H      6.53133     3.18779     2.45200
H      7.90954     3.13633     1.31951
C     -1.07060     3.34135    -1.31810
C     -1.01253     4.78286    -0.91806
O     -2.11126     2.68892    -1.29447
O      0.07510     2.83457    -1.68336
H     -0.01420     1.91319    -2.05843
H     -0.47922     5.35470    -1.67478
H     -2.01441     5.17423    -0.78097
H     -0.46296     4.84462     0.01875
C      1.00027    -2.12025     0.42838
C     -0.07447    -2.59937     1.34918
O      0.88257    -2.05373    -0.77339
O      2.11656    -1.76182     1.06828
H      2.76288    -1.44659     0.41449
H      0.31619    -3.29716     2.08522
H     -0.52159    -1.76214     1.87766
H     -0.83416    -3.07940     0.74741
