 72
-2063.3237185084754
C     -3.34578     0.61264     0.93801
C     -2.00945     1.12506     0.49916
O     -3.80803     0.72967     2.04746
O     -4.01908    -0.00925    -0.04283
H     -4.78951    -0.41648     0.37166
H     -1.93213     2.17801     0.74658
H     -1.23411     0.58809     1.03463
H     -1.85256     0.98005    -0.56015
C      2.34707    -0.74012     0.61183
C      2.09396    -2.03431    -0.09310
O      3.08746     0.13737     0.20961
O      1.67787    -0.62964     1.75301
H      1.79346     0.26375     2.11328
H      2.94293    -2.29170    -0.71965
H      1.87602    -2.81521     0.62874
H      1.22606    -1.90837    -0.74057
C      2.41201     3.16860     2.15399
C      3.87006     3.33739     1.89206
O      1.94598     2.12196     2.60120
O      1.67830     4.21028     1.87379
H      0.72875     4.06226     2.14599
H      4.27596     2.38576     1.56733
H      4.02606     4.10174     1.14010
H      4.36385     3.63215     2.81739
C     -1.50163    -2.60237     2.34310
C     -1.48053    -1.73157     3.55935
O     -0.64304    -3.44148     2.12235
O     -2.51895    -2.38851     1.53383
H     -2.42563    -2.93377     0.71180
H     -0.56235    -1.15118     3.56102
H     -2.34570    -1.07983     3.56296
H     -1.47372    -2.36966     4.44235
C      1.03954     2.03007    -1.55071
C      0.41906     3.10230    -2.39068
O      0.51240     0.97136    -1.31239
O      2.25659     2.35772    -1.10352
H      2.60892     1.59030    -0.60362
H      0.76940     4.08674    -2.09329
H      0.69449     2.91822    -3.42808
H     -0.66133     3.04204    -2.31130
C     -1.18638    -4.48408    -0.95541
C     -1.00112    -5.08061    -2.31443
O     -2.14700    -3.78008    -0.67301
O     -0.21902    -4.76242    -0.11261
H     -0.38290    -4.31553     0.75861
H     -1.96101    -5.40472    -2.70548
H     -0.61283    -4.29794    -2.96557
H     -0.29365    -5.90173    -2.27367
C      2.40560     0.04327    -4.18472
C      3.74755     0.71166    -4.17802
O      1.44835     0.49607    -4.79030
O      2.36090    -1.05755    -3.46056
H      1.43302    -1.39795    -3.41264
H      4.54096    -0.02983    -4.19825
H      3.82713     1.38517    -5.02433
H      3.83306     1.28268    -3.25401
C     -1.08027    -1.02864    -3.26451
C     -2.34127    -1.23174    -2.49107
O     -0.16256    -1.83742    -3.26307
O     -1.05886     0.08420    -3.96630
H     -0.16219     0.23188    -4.34910
H     -2.78053    -2.18247    -2.77567
H     -2.11940    -1.30486    -1.43298
H     -3.03393    -0.41786    -2.66399
C     -1.19495     2.91909     3.41990
C     -2.54026     2.93332     4.06241
O     -0.78764     3.80977     2.68914
O     -0.47488     1.84399     3.69090
H      0.42424     1.92845     3.29512
H     -2.48127     2.50547     5.05896
H     -2.92664     3.94658     4.08715
H     -3.20919     2.31053     3.46756
