 48
-1375.5356657350826
C      0.70059     0.51148     2.66081
C     -0.71512     0.95879     2.87829
O      1.52833     0.37715     3.52604
O      0.94738     0.27458     1.36080
H      1.88288     0.02667     1.24757
H     -0.93085     0.99190     3.94203
H     -0.84348     1.94847     2.44535
H     -1.39910     0.28210     2.37205
C      5.23510    -0.65720    -2.42397
C      5.60090    -0.43054    -3.85895
O      5.86567    -1.40889    -1.69759
O      4.18180     0.02887    -2.02579
H      3.97866    -0.16341    -1.08133
H      5.70348    -1.39201    -4.35435
H      4.85198     0.17934    -4.35037
H      6.57002     0.06123    -3.89702
C     -2.00835    -0.12195    -1.42222
C     -0.69983     0.52313    -1.70960
O     -2.50467    -0.13635    -0.29398
O     -2.60221    -0.67124    -2.44953
H     -3.46796    -1.09001    -2.18643
H      0.02428     0.19695    -0.96987
H     -0.37468     0.28477    -2.71684
H     -0.82544     1.59780    -1.58440
C     -2.70907     3.31806     0.46331
C     -3.20389     4.65567     0.94140
O     -1.65608     3.12961    -0.09510
O     -3.57991     2.33884     0.74973
H     -3.22526     1.50203     0.40922
H     -4.19584     4.85079     0.53933
H     -3.28520     4.63993     2.02749
H     -2.51233     5.43243     0.63555
C      4.33089    -1.15385     1.32197
C      4.07494    -1.30659     2.78335
O      3.58476    -0.51881     0.57778
O      5.41845    -1.74493     0.89957
H      5.56006    -1.60945    -0.07817
H      4.79339    -1.98971     3.22243
H      4.13742    -0.32876     3.25374
H      3.05624    -1.65009     2.93458
C     -5.33235    -1.94516    -0.62007
C     -6.61359    -2.66439    -0.31990
O     -4.91502    -1.80556    -1.75908
O     -4.71131    -1.48732     0.44848
H     -3.89484    -0.99771     0.19328
H     -6.79357    -2.68715     0.74853
H     -7.42790    -2.15989    -0.83380
H     -6.55286    -3.67360    -0.71894
