 48
-1375.5408938007486
C     -0.31240    -1.16937     2.96026
C     -1.53245    -0.38621     3.35030
O     -0.16754    -2.35342     3.13915
O      0.61537    -0.39042     2.37708
H      1.38043    -0.93981     2.13685
H     -2.23335    -1.04233     3.85484
H     -1.24708     0.43624     4.00389
H     -1.99543     0.04376     2.46383
C      2.45303    -3.27534     1.59402
C      2.45459    -4.13927     2.80788
O      2.74866    -2.07979     1.62344
O      2.10579    -3.87938     0.48703
H      2.17206    -3.28101    -0.29855
H      1.55258    -3.91199     3.37340
H      2.45596    -5.18425     2.52087
H      3.31390    -3.89470     3.42544
C     -4.04075     3.98860    -0.45677
C     -5.39264     4.63942    -0.52623
O     -3.05536     4.49061    -0.97530
O     -4.02291     2.85044     0.20233
H     -3.10719     2.45694     0.20956
H     -6.13180     4.03624    -0.01192
H     -5.32909     5.62811    -0.07847
H     -5.66652     4.77157    -1.57001
C     -0.58166     2.35800    -0.15143
C      0.76457     1.74528     0.04816
O     -1.61019     1.81089     0.22963
O     -0.56949     3.52414    -0.75282
H     -1.48884     3.89087    -0.83688
H      1.42539     2.03421    -0.76027
H      1.16544     2.09380     0.99798
H      0.66155     0.66974     0.08987
C      2.99579    -1.21288    -1.63843
C      3.40281    -0.51631    -2.89329
O      2.37827    -2.27556    -1.63913
O      3.32229    -0.59649    -0.52998
H      3.08510    -1.12952     0.27060
H      3.72675    -1.24813    -3.62719
H      2.52149    -0.00788    -3.28284
H      4.18067     0.21049    -2.68720
C     -0.62301    -0.59605    -2.38435
C     -2.05519    -0.28211    -2.70270
O      0.28250     0.19996    -2.47716
O     -0.45997    -1.85387    -1.95541
H      0.48184    -2.01745    -1.78066
H     -2.10766     0.59352    -3.34098
H     -2.53582    -1.13617    -3.17350
H     -2.57367    -0.06951    -1.76971
