 80
-2292.5798584264294
C      5.24889     1.81217    -1.89811
C      5.65251     2.10710    -3.30205
O      5.57702     0.78427    -1.30890
O      4.49800     2.73096    -1.33330
H      4.34079     2.53813    -0.37719
H      6.66816     1.76081    -3.46749
H      4.98864     1.54104    -3.95529
H      5.55557     3.16691    -3.50899
C     -4.23628     0.97058    -0.20652
C     -5.36709     1.22516    -1.15444
O     -3.06281     1.10406    -0.49435
O     -4.63145     0.57173     0.99362
H     -3.84067     0.48655     1.57849
H     -6.12366     1.84491    -0.67939
H     -4.99402     1.70468    -2.05215
H     -5.82208     0.27335    -1.41980
C     -6.13914    -2.17622     1.35001
C     -7.16843    -1.68923     2.32313
O     -5.06828    -2.64865     1.69018
O     -6.49993    -2.01816     0.09023
H     -5.71903    -2.15740    -0.49475
H     -8.16842    -1.84826     1.93213
H     -7.03390    -2.19016     3.27579
H     -7.01405    -0.61978     2.46278
C      0.14241     1.65961    -2.05922
C      1.10200     2.44823    -2.90605
O      0.47003     0.72529    -1.36590
O     -1.10628     2.12220    -2.14633
H     -1.71904     1.64070    -1.55791
H      0.57654     3.23142    -3.44897
H      1.86030     2.87954    -2.25840
H      1.60367     1.77197    -3.59315
C     -3.09055    -2.07584    -0.96696
C     -1.92178    -1.88592    -1.87243
O     -4.24723    -2.07065    -1.35345
O     -2.75967    -2.25100     0.30476
H     -3.56334    -2.43875     0.84482
H     -1.22459    -2.70782    -1.74457
H     -2.26167    -1.81313    -2.89873
H     -1.39385    -0.97890    -1.58622
C      1.42517    -2.89874     0.27717
C      1.97174    -1.54804     0.59772
O      0.79439    -3.19326    -0.71014
O      1.70866    -3.82184     1.22401
H      1.32546    -4.65349     0.91686
H      1.57471    -1.20894     1.55085
H      3.05378    -1.60155     0.66842
H      1.69360    -0.85615    -0.18623
C      3.12156    -1.05056    -3.10061
C      1.97999    -1.95910    -3.41819
O      3.44891    -0.10479    -3.77940
O      3.75312    -1.37513    -1.96207
H      4.44066    -0.71234    -1.79455
H      2.23015    -2.99269    -3.19768
H      1.14121    -1.69312    -2.78123
H      1.69542    -1.83676    -4.45818
C     -1.88329    -0.56325     2.94782
C     -2.52722    -1.80937     3.46692
O     -2.49022     0.42087     2.56481
O     -0.56064    -0.62317     2.95368
H     -0.16137     0.23131     2.68541
H     -2.08827    -2.07968     4.42471
H     -3.59501    -1.65533     3.55476
H     -2.34277    -2.62560     2.77223
C      4.58701     1.19733     1.87519
C      4.32162     0.97783     3.32793
O      4.23351     2.21738     1.28926
O      5.21291     0.21477     1.27448
H      5.36754     0.42103     0.31828
H      3.25415     0.80877     3.45641
H      4.87871     0.12196     3.69261
H      4.58455     1.87598     3.87947
C      0.61273     2.65948     1.68259
C     -0.75734     3.21871     1.48957
O      0.86298     1.66215     2.33352
O      1.56311     3.36545     1.07492
H      2.42326     2.94556     1.23474
H     -1.06310     3.08401     0.45582
H     -1.44910     2.69296     2.13678
H     -0.75419     4.28574     1.70460
