 48
-1375.5418886410487
C     -0.65836    -2.23150    -0.40131
C     -2.03969    -2.62426    -0.79133
O     -0.39486    -1.53262     0.56194
O      0.27666    -2.70428    -1.20915
H      1.14656    -2.35504    -0.93533
H     -2.39266    -1.92564    -1.54771
H     -2.03817    -3.62732    -1.21033
H     -2.70140    -2.55720     0.06206
C      3.96420    -0.65925     2.55794
C      4.18392    -0.67091     4.03989
O      4.21851     0.30715     1.85394
O      3.47502    -1.79044     2.09739
H      3.25031    -1.70383     1.14376
H      3.21664    -0.73189     4.53340
H      4.75411    -1.55273     4.32035
H      4.70179     0.22897     4.34845
C     -1.86104     1.26455    -2.50692
C     -2.50902     1.72016    -3.78273
O     -1.46634     0.13775    -2.31214
O     -1.77846     2.24460    -1.60976
H     -1.32713     1.92766    -0.79874
H     -3.57479     1.86276    -3.61043
H     -2.09089     2.67400    -4.09742
H     -2.36708     0.97059    -4.55414
C      0.57537     1.41975     1.44118
C      1.29602     2.56884     2.07068
O     -0.19616     1.52838     0.50867
O      0.87286     0.25763     1.99145
H      0.41697    -0.45046     1.48167
H      1.16429     2.54634     3.14951
H      2.35895     2.47264     1.85897
H      0.93087     3.50775     1.66869
C      2.55985    -0.36112    -0.97412
C      1.75917    -0.15538    -2.21578
O      2.69270    -1.46929    -0.45834
O      3.08853     0.72396    -0.47511
H      3.56571     0.54251     0.38103
H      0.71207    -0.00875    -1.94265
H      2.09814     0.71994    -2.75697
H      1.81367    -1.04299    -2.83630
C     -4.34063     0.15168    -0.07286
C     -3.28099     0.72623     0.82176
O     -4.71216    -0.99326    -0.07024
O     -4.87113     1.06291    -0.92054
H     -5.56517     0.60198    -1.40582
H     -3.14526     1.78996     0.66766
H     -3.56167     0.53151     1.85411
H     -2.33871     0.22340     0.63741
