 80
-2292.582608670543
C     -1.24743    -1.95087    -2.39981
C     -2.39842    -2.84749    -2.73908
O     -0.87017    -1.73119    -1.26800
O     -0.69993    -1.38780    -3.47035
H      0.07236    -0.86695    -3.18290
H     -2.08776    -3.58796    -3.47324
H     -2.76081    -3.33023    -1.83885
H     -3.18811    -2.24604    -3.18200
C     -6.84776    -0.93099    -0.81465
C     -8.19897    -1.52516    -0.54175
O     -6.06952    -0.65113     0.08684
O     -6.58455    -0.74194    -2.08720
H     -5.67625    -0.35138    -2.19872
H     -8.72165    -1.72052    -1.47077
H     -8.07373    -2.44288     0.02728
H     -8.76790    -0.83463     0.07617
C     -0.19668    -1.98303     1.89699
C     -1.59967    -1.47270     1.83064
O      0.20470    -2.91850     1.22248
O      0.57518    -1.33733     2.75371
H      1.49067    -1.69055     2.72447
H     -1.81253    -1.19444     0.80278
H     -2.27018    -2.28686     2.10233
H     -1.73253    -0.62846     2.49482
C      5.24039     0.13439     2.04854
C      5.99340     1.42954     1.99328
O      5.36309    -0.76139     1.24574
O      4.39693     0.08498     3.08638
H      3.90565    -0.75343     3.04403
H      6.31290     1.72432     2.98966
H      6.84430     1.32916     1.32755
H      5.33313     2.20473     1.60797
C      3.45992    -3.27317     1.92983
C      4.84823    -3.82004     2.02841
O      3.07254    -2.31783     2.60062
O      2.69096    -3.90379     1.08373
H      1.79949    -3.47315     1.01102
H      5.54705    -3.03400     1.75403
H      5.04443    -4.09708     3.06163
H      4.95744    -4.67932     1.37650
C     -3.53964     0.84198    -1.44042
C     -2.39260     1.74711    -1.73661
O     -4.18101     0.29286    -2.32261
O     -3.80198     0.68162    -0.15866
H     -4.63996     0.15803    -0.03161
H     -2.73391     2.77782    -1.66497
H     -1.60263     1.61480    -1.00448
H     -2.02399     1.54887    -2.73479
C      1.46621     2.11790     1.00923
C      1.31941     1.73838     2.44432
O      0.60659     2.66553     0.34723
O      2.66288     1.81820     0.50197
H      2.71119     2.15429    -0.42142
H      1.44210     2.63557     3.04962
H      0.32367     1.35216     2.63160
H      2.06557     1.00503     2.72037
C      1.72069     3.21163    -2.65969
C      1.39007     4.64449    -2.95260
O      2.67839     2.84790    -2.00536
O      0.84221     2.36848    -3.17948
H      1.06493     1.46497    -2.90054
H      2.27761     5.26034    -2.85890
H      0.95619     4.73230    -3.94329
H      0.65148     4.97882    -2.22651
C      2.28533    -0.81928    -1.47232
C      3.76590    -0.74152    -1.59393
O      1.51148    -0.23512    -2.21758
O      1.87480    -1.58310    -0.48465
H      0.90162    -1.68394    -0.50906
H      4.14227    -1.68952    -1.97450
H      4.02161     0.06742    -2.26796
H      4.20391    -0.57773    -0.61605
C     -2.45751     2.67562     2.17396
C     -3.93571     2.87597     2.34482
O     -1.78238     1.95385     2.86987
O     -1.96616     3.38112     1.14748
H     -1.02067     3.16806     1.03066
H     -4.45284     2.14610     1.72609
H     -4.20523     2.70792     3.38240
H     -4.22277     3.87284     2.02320
