 48
-1375.545437814944
C      0.30566    -0.82745     2.24167
C     -0.81374    -0.33797     3.10547
O      0.16486    -1.56624     1.28607
O      1.49512    -0.36997     2.61295
H      2.18054    -0.80414     2.06038
H     -0.62831     0.68912     3.40532
H     -1.75211    -0.42526     2.57116
H     -0.85340    -0.95443     4.00367
C      1.46307    -0.53279    -1.93476
C      0.61195    -0.24609    -3.12670
O      2.40286     0.16951    -1.59482
O      1.11699    -1.62378    -1.28527
H      1.42418    -1.60654    -0.36156
H     -0.06339    -1.07289    -3.31258
H      0.03314     0.65520    -2.92886
H      1.24463    -0.05386    -3.98998
C      0.16366     2.68936     0.32769
C      1.58408     2.87931     0.76337
O     -0.18892     1.72682    -0.33766
O     -0.65919     3.62631     0.73132
H     -1.58862     3.40107     0.45376
H      2.24943     2.53527    -0.02156
H      1.76554     3.92404     1.00352
H      1.74977     2.27190     1.65023
C     -3.41201     2.08378    -0.83802
C     -4.83456     1.77309    -1.17037
O     -3.08997     2.92956    -0.02454
O     -2.54096     1.34946    -1.51091
H     -1.64006     1.48888    -1.13598
H     -5.47021     2.60463    -0.88469
H     -4.93064     1.55160    -2.22864
H     -5.12916     0.89101    -0.60306
C      4.31758    -1.46558     0.53869
C      5.52209    -2.15235     1.11305
O      3.18804    -1.64401     0.98036
O      4.57640    -0.67909    -0.47378
H      3.73352    -0.32085    -0.87308
H      5.62874    -1.87094     2.15811
H      5.36386    -3.22752     1.08010
H      6.41089    -1.88040     0.55707
C     -3.01366    -1.53031    -0.27299
C     -4.12507    -1.81904    -1.24051
O     -3.13014    -0.81757     0.69607
O     -1.88473    -2.13855    -0.63781
H     -1.14910    -1.90328    -0.03877
H     -4.09195    -1.07548    -2.03602
H     -4.00531    -2.80465    -1.68236
H     -5.07998    -1.73772    -0.73171
