 80
-2292.5927473981706
C     -1.97778     3.54988    -2.10763
C     -3.28875     4.24859    -2.28423
O     -1.32752     3.10772    -3.04067
O     -1.60724     3.43031    -0.84688
H     -0.75025     2.94201    -0.78795
H     -3.41481     5.00724    -1.51975
H     -3.35688     4.67815    -3.27745
H     -4.08430     3.51596    -2.16617
C     -7.09323     3.65161    -1.29963
C     -8.25341     4.05155    -2.16304
O     -6.56123     2.55391    -1.40172
O     -6.69700     4.57508    -0.45545
H     -5.94734     4.24150     0.11026
H     -9.06007     3.33541    -2.02812
H     -8.58456     5.05198    -1.91083
H     -7.94852     4.00333    -3.20575
C      2.44880    -3.72145    -2.08200
C      1.35669    -3.50376    -3.07328
O      2.67214    -4.80868    -1.56747
O      3.15470    -2.63895    -1.81259
H      3.80866    -2.82079    -1.09926
H      1.66657    -2.76194    -3.80241
H      1.10613    -4.44513    -3.55036
H      0.47971    -3.12115    -2.55299
C      4.94010     0.03974     1.98834
C      5.18019     1.52017     2.08457
O      4.62951    -0.66474     2.91691
O      5.10396    -0.40602     0.73773
H      5.01237    -1.37299     0.71883
H      4.54764     2.04136     1.36952
H      4.96316     1.85792     3.09186
H      6.21623     1.74350     1.83490
C      4.60468    -4.12613     1.01101
C      5.11995    -4.10929     2.41270
O      4.81913    -3.21657     0.21646
O      3.92329    -5.20033     0.70106
H      3.51199    -5.10569    -0.20007
H      6.17635    -4.37634     2.39474
H      5.03046    -3.10375     2.81260
H      4.57389    -4.82103     3.02328
C     -4.23760     2.55350     0.97795
C     -3.22174     2.09334     1.97144
O     -4.70180     3.68333     0.98578
O     -4.58415     1.64247     0.08920
H     -5.34488     1.95728    -0.46875
H     -2.85933     1.10717     1.70964
H     -2.40361     2.80781     1.98329
H     -3.67852     2.08586     2.96094
C      0.65205    -2.97880     1.53129
C      0.44223    -4.45913     1.44874
O     -0.20547    -2.17577     1.84025
O      1.89482    -2.61998     1.24563
H      1.99681    -1.65393     1.38182
H     -0.56564    -4.70939     1.76553
H      0.59855    -4.78901     0.42514
H      1.17176    -4.96422     2.07652
C      1.12751     0.71543     2.48622
C      1.10795     0.46514     3.95929
O      1.76835     0.05784     1.69167
O      0.36518     1.73208     2.11355
H      0.43140     1.82710     1.14824
H      2.08852     0.12147     4.27577
H      0.80799     1.36415     4.49054
H      0.37991    -0.32160     4.15868
C      1.08712     1.32059    -1.65391
C      2.15288     0.31193    -1.41521
O      0.60537     2.00346    -0.74904
O      0.67987     1.42078    -2.88994
H     -0.04896     2.09508    -2.97693
H      1.67236    -0.64350    -1.22244
H      2.78710     0.18611    -2.28655
H      2.71250     0.59294    -0.53351
C     -1.61741    -1.08172    -0.94010
C     -2.57807    -0.44878    -1.90664
O     -0.81221    -1.93612    -1.23007
O     -1.71641    -0.56639     0.28717
H     -1.12014    -1.06133     0.89003
H     -3.43446    -0.03657    -1.38304
H     -2.06338     0.35729    -2.42537
H     -2.89727    -1.18129    -2.64400
