 80
-2292.581207529982
C      2.20453    -0.15309     2.77416
C      0.82885    -0.29609     3.32922
O      2.89932    -1.11316     2.47830
O      2.61645     1.09348     2.62671
H      3.51381     1.10502     2.21945
H      0.85558    -0.99812     4.15923
H      0.44167     0.66619     3.63672
H      0.19917    -0.71350     2.54804
C     -3.93074     3.01756     2.73355
C     -5.35502     2.87138     3.16624
O     -3.62637     3.50588     1.64732
O     -3.05374     2.57944     3.59404
H     -2.13459     2.66551     3.22260
H     -5.41040     2.70972     4.23743
H     -5.91588     3.75346     2.87247
H     -5.77120     2.01068     2.64430
C     -0.58818    -4.34311    -3.84011
C     -1.57218    -4.96963    -4.78303
O     -0.08881    -4.94624    -2.90188
O     -0.32906    -3.07999    -4.11426
H      0.35658    -2.71685    -3.50584
H     -1.76584    -5.99329    -4.48550
H     -2.49441    -4.39292    -4.77733
H     -1.17248    -4.94187    -5.79440
C     -0.48753     0.31657    -0.70655
C     -1.65478     1.24139    -0.56957
O      0.19023    -0.08931     0.20744
O     -0.27379    -0.02635    -1.97818
H      0.43533    -0.68715    -2.03714
H     -1.35919     2.23098    -0.90881
H     -2.46758     0.88854    -1.19683
H     -1.98461     1.29341     0.46205
C      1.88584    -2.71836    -1.38868
C      2.77181    -2.05173    -0.39580
O      1.55244    -2.17562    -2.44555
O      1.46854    -3.90550    -1.04999
H      0.90561    -4.31089    -1.76293
H      3.67456    -1.70764    -0.89150
H      2.24093    -1.18252    -0.02060
H      3.00412    -2.72260     0.42357
C     -5.30306     1.16294    -0.46371
C     -5.78583     0.50093    -1.70733
O     -5.10277     0.59368     0.59305
O     -5.10350     2.47130    -0.60632
H     -4.77631     2.83107     0.23487
H     -6.73961     0.01844    -1.50209
H     -5.88884     1.22370    -2.50812
H     -5.08230    -0.28555    -1.97735
C     -3.07994    -2.14193    -0.23354
C     -2.00240    -3.18408    -0.21357
O     -3.66476    -1.80180    -1.23406
O     -3.30157    -1.61078     0.96996
H     -4.00027    -0.93917     0.88855
H     -1.39208    -3.04943    -1.09778
H     -1.39623    -3.10319     0.67956
H     -2.44058    -4.17645    -0.27781
C     -0.30750     3.55246     1.64403
C      1.11630     3.60878     1.20841
O     -0.69224     2.80218     2.52693
O     -1.11991     4.37400     1.00951
H     -2.04337     4.18803     1.28698
H      1.74839     3.79761     2.07182
H      1.39229     2.62862     0.83574
H      1.26274     4.36812     0.44850
C      5.71674     0.04663     1.25704
C      7.14016     0.14559     0.81917
O      5.00256     1.03877     1.40696
O      5.29051    -1.17177     1.43780
H      4.33999    -1.19592     1.74612
H      7.52360     1.13553     1.03676
H      7.73202    -0.62610     1.30092
H      7.16700    -0.02154    -0.25598
C      3.86645     0.84713    -1.94005
C      3.12159     1.09314    -3.21796
O      4.77800     0.06529    -1.82681
O      3.39939     1.58166    -0.91769
H      3.96238     1.42486    -0.14199
H      2.27386     1.75002    -3.05669
H      3.80187     1.52860    -3.94801
H      2.78209     0.13646    -3.60876
