 48
-1375.5406586052284
C      0.46559     2.08090    -2.03842
C     -0.75586     2.95032    -1.97709
O      1.56721     2.44781    -2.35990
O      0.18822     0.81787    -1.65990
H      1.00443     0.30179    -1.71667
H     -1.58913     2.46954    -2.48198
H     -1.03815     3.08118    -0.93619
H     -0.54721     3.91816    -2.41935
C      1.89151    -3.56823     0.67845
C      1.19972    -4.80896     1.13036
O      1.82512    -3.15152    -0.47860
O      2.55536    -2.94160     1.61545
H      3.03847    -2.15373     1.24595
H      1.64135    -5.17417     2.05080
H      0.15237    -4.55341     1.29420
H      1.24025    -5.55303     0.34104
C     -0.68473     0.91117     1.54561
C      0.29748    -0.13526     1.96096
O     -0.45013     2.10645     1.64391
O     -1.80505     0.43796     1.05066
H     -2.41718     1.17866     0.79796
H     -0.20404    -1.04119     2.27888
H      0.91008    -0.37414     1.09492
H      0.95469     0.24684     2.73333
C     -3.30663     3.55966     0.91371
C     -4.43042     4.55038     0.81224
O     -3.40286     2.42362     0.46635
O     -2.22718     4.01980     1.50112
H     -1.53096     3.30831     1.57633
H     -4.15306     5.48648     1.28279
H     -4.66687     4.70814    -0.23738
H     -5.31503     4.13187     1.28614
C      3.50111    -0.26110    -0.41844
C      4.08517     1.04512    -0.82901
O      3.78782    -0.83207     0.61837
O      2.61208    -0.75797    -1.27660
H      2.34120    -1.67268    -1.00559
H      4.48781     0.96344    -1.83582
H      3.29364     1.79084    -0.86687
H      4.85831     1.34056    -0.12886
C     -1.68815    -2.71267    -0.63908
C     -3.06956    -2.25160    -0.99063
O     -1.36281    -3.12187     0.45161
O     -0.83050    -2.62350    -1.66422
H      0.03201    -2.92856    -1.34938
H     -3.27480    -1.32418    -0.46087
H     -3.16001    -2.09287    -2.06018
H     -3.78695    -2.99357    -0.64737
