 48
-1375.5421023382285
C     -1.67887     0.56022     0.15819
C     -2.85244     1.46808    -0.06237
O     -1.02614     0.06448    -0.72853
O     -1.41784     0.37795     1.45988
H     -0.62186    -0.17017     1.53859
H     -2.48785     2.48625    -0.18829
H     -3.37186     1.17915    -0.97191
H     -3.52606     1.43779     0.78872
C      0.83591    -2.45052    -1.57934
C     -0.11801    -2.83074    -2.65775
O      0.74756    -2.86867    -0.42549
O      1.78081    -1.62131    -1.95137
H      2.30225    -1.32392    -1.16198
H     -0.28989    -3.90198    -2.62626
H     -1.07397    -2.35326    -2.44545
H      0.25245    -2.51637    -3.62761
C      0.83945     2.55701    -1.15165
C      1.29738     1.70036    -2.28213
O      1.30624     2.48725    -0.02205
O     -0.12464     3.38898    -1.47435
H     -0.39314     3.91803    -0.68080
H      2.21171     1.19040    -2.00233
H      0.52578     0.95989    -2.47241
H      1.44157     2.30051    -3.17787
C     -0.13539     4.86078     1.71416
C     -0.47606     5.85503     2.78538
O     -0.84251     4.69483     0.73029
O      0.97531     4.18868     1.93120
H      1.12640     3.54499     1.18898
H      0.26890     5.83733     3.57220
H     -0.53598     6.84589     2.34135
H     -1.45841     5.61735     3.18600
C      2.27529    -0.41616     1.21256
C      2.67644     0.56971     2.26010
O      2.93881    -0.65800     0.22195
O      1.11231    -1.01860     1.44498
H      0.98646    -1.75759     0.79686
H      2.20137     0.34464     3.21019
H      3.75792     0.56434     2.35996
H      2.36667     1.56257     1.93500
C     -2.08058    -5.14131    -0.40541
C     -2.86833    -6.34292     0.04175
O     -2.50635    -4.25828    -1.10738
O     -0.82588    -5.17589     0.06754
H     -0.36049    -4.36382    -0.20758
H     -3.87171    -6.28838    -0.36424
H     -2.37562    -7.25251    -0.29651
H     -2.90631    -6.37537     1.12891
