 64
-1834.0668126983599
C     -2.15075    -0.66530     0.49174
C     -2.65061     0.29470    -0.53569
O     -2.61058    -0.73312     1.61741
O     -1.16018    -1.43340     0.06746
H     -0.98591    -2.15028     0.73043
H     -2.37591    -0.04374    -1.52688
H     -3.72674     0.40844    -0.44683
H     -2.18080     1.25443    -0.33524
C      0.96398     0.58656     2.96028
C     -0.16939     1.00202     3.83618
O      1.70527     1.37864     2.38557
O      1.10690    -0.71314     2.85442
H      1.84603    -0.95655     2.24799
H     -0.37801     0.22918     4.56505
H      0.06670     1.94358     4.32215
H     -1.03958     1.14484     3.19691
C     -3.15648     1.35850    -4.30705
C     -4.49995     1.31334    -4.97225
O     -2.76948     2.34662    -3.69910
O     -2.45693     0.25196    -4.41621
H     -1.57510     0.34456    -3.96644
H     -5.26819     1.41990    -4.20971
H     -4.59215     2.15968    -5.64789
H     -4.62795     0.37943    -5.50722
C      3.93481    -0.50459     0.71234
C      5.05846    -0.93349    -0.17383
O      3.21955    -1.29891     1.31731
O      3.76515     0.79512     0.78426
H      3.01105     1.01455     1.38046
H      5.55388    -1.79758     0.25863
H      4.62558    -1.22916    -1.12951
H      5.75159    -0.11278    -0.32579
C     -0.97958    -3.09540     3.13204
C     -0.22006    -3.87664     4.16185
O     -0.86981    -3.28234     1.93274
O     -1.76791    -2.17414     3.65052
H     -2.15881    -1.63598     2.91865
H     -0.87632    -4.15200     4.98364
H      0.22260    -4.75608     3.70825
H      0.56995    -3.23893     4.55689
C      1.68522    -2.52613    -1.54445
C      0.51359    -2.95943    -2.36244
O      2.45112    -1.63935    -1.84935
O      1.81506    -3.22713    -0.41277
H      2.50086    -2.80126     0.12012
H      0.38413    -2.27716    -3.19508
H      0.67584    -3.97413    -2.72477
H     -0.37332    -2.95718    -1.73678
C     -0.41554     3.37412     0.75852
C     -1.20188     4.50569     0.17089
O     -0.88166     2.30412     1.08050
O      0.88189     3.67414     0.88863
H      1.31819     2.94240     1.35302
H     -0.78117     5.45569     0.48727
H     -1.14949     4.44859    -0.91444
H     -2.24259     4.42427     0.47014
C      0.17399     1.49182    -2.46282
C      1.44219     1.48645    -1.68076
O     -0.18238     0.55435    -3.15856
O     -0.54115     2.59306    -2.33912
H     -1.37419     2.53132    -2.87820
H      1.21290     1.26861    -0.63647
H      2.09568     0.71127    -2.05690
H      1.91632     2.46091    -1.71229
