 64
-1834.0712726669067
C     -2.17442    -0.82356    -1.25635
C     -2.67185     0.51594    -1.68257
O     -2.73601    -1.86977    -1.51182
O     -1.05084    -0.75393    -0.54798
H     -0.65415    -1.64894    -0.49652
H     -2.76429     1.15477    -0.80950
H     -1.94533     0.96879    -2.35305
H     -3.63228     0.42118    -2.17757
C      1.03602     3.13078    -2.18814
C      0.72949     4.59362    -2.11390
O      0.34977     2.33654    -2.81088
O      2.10330     2.78111    -1.50149
H      2.27458     1.80977    -1.60211
H      1.64144     5.17303    -2.22865
H      0.00114     4.85593    -2.87280
H      0.31706     4.80057    -1.12845
C      0.74172    -1.75090     2.98913
C     -0.66007    -1.76914     3.51275
O      1.59743    -1.00649     3.43820
O      0.95741    -2.59959     2.00617
H      1.86681    -2.47136     1.62533
H     -1.08421    -0.77557     3.39748
H     -1.26347    -2.49352     2.97875
H     -0.63185    -2.00371     4.57507
C      1.80278    -0.60338    -2.41908
C      2.11816    -2.06001    -2.48212
O      2.48111     0.18557    -1.77611
O      0.74457    -0.25605    -3.11453
H      0.56392     0.71170    -3.01066
H      1.36199    -2.58545    -3.05335
H      3.09660    -2.18462    -2.94101
H      2.15012    -2.45935    -1.47270
C     -0.78399    -4.23465    -0.42475
C     -0.18056    -5.47751     0.15763
O     -0.12564    -3.27325    -0.78537
O     -2.10027    -4.27510    -0.50313
H     -2.42268    -3.41827    -0.87619
H      0.72166    -5.73016    -0.39165
H      0.10294    -5.26686     1.18765
H     -0.89919    -6.28950     0.13546
C     -4.08870     3.34207     0.96726
C     -5.46954     3.92844     0.91016
O     -3.87013     2.24574     1.46443
O     -3.15106     4.10025     0.44518
H     -2.27005     3.64371     0.49122
H     -5.78896     4.16786     1.92236
H     -5.47578     4.82335     0.29852
H     -6.15827     3.18553     0.51698
C     -0.61002     1.91841     1.39083
C      0.77062     1.38593     1.56751
O     -0.88324     2.78098     0.57209
O     -1.50255     1.37764     2.19275
H     -2.41339     1.70312     1.96831
H      0.76402     0.33061     1.31088
H      1.44862     1.90690     0.90603
H      1.08474     1.46430     2.60436
C      3.96465    -1.09947     1.10285
C      5.07706    -0.73726     0.17009
O      3.33852    -2.14612     1.01175
O      3.72381    -0.18235     2.01550
H      2.96187    -0.44925     2.58382
H      4.64286    -0.23595    -0.69330
H      5.77023    -0.06252     0.66217
H      5.57487    -1.64097    -0.16684
