 32
-917.0165933055596
C      1.81550    -2.35460    -2.14194
C      2.90656    -3.38578    -2.02954
O      1.29738    -2.00361    -3.17107
O      1.48683    -1.85226    -0.93806
H      0.76103    -1.21262    -1.04937
H      3.12077    -3.79150    -3.01182
H      3.80307    -2.92898    -1.61291
H      2.59789    -4.18248    -1.35490
C     -0.65092     1.04058    -1.31928
C      0.50473     1.39084    -2.19099
O     -0.74634    -0.04329    -0.74276
O     -1.55259     1.97938    -1.20668
H     -2.29637     1.70256    -0.60637
H      0.26261     2.25616    -2.80021
H      1.34718     1.61812    -1.54103
H      0.76073     0.53258    -2.80525
C      1.89715     1.04753     1.82537
C      1.32730    -0.26840     2.25502
O      1.52821     1.70916     0.88820
O      2.92164     1.44076     2.61203
H      3.22370     2.28600     2.25811
H      1.94048    -1.07175     1.85000
H      1.31857    -0.35542     3.33944
H      0.32527    -0.36812     1.85390
C     -3.47256     0.33989     1.20620
C     -4.51649     0.09560     2.25645
O     -3.53164     1.28426     0.43636
O     -2.50010    -0.55173     1.19917
H     -1.85508    -0.36233     0.47179
H     -4.25301    -0.76185     2.86490
H     -4.61117     0.98733     2.87042
H     -5.47311    -0.06727     1.76636
