 48
-1375.5434966434195
C     -0.48461     0.59004     2.01780
C     -0.77649     1.95015     2.57297
O     -1.32205    -0.26506     1.84712
O      0.80112     0.42689     1.70261
H      0.93159    -0.47065     1.35250
H      0.06231     2.33509     3.14329
H     -0.96954     2.63226     1.74709
H     -1.67233     1.90522     3.18120
C      1.05703    -3.14752     0.69980
C     -0.28363    -3.23380     1.33939
O      1.78448    -2.15753     0.79292
O      1.39509    -4.20335     0.00794
H      2.28798    -4.08884    -0.41601
H     -1.00394    -2.81341     0.63654
H     -0.53686    -4.26965     1.54135
H     -0.30772    -2.62489     2.23529
C     -2.32237     5.03240     0.35261
C     -2.09624     6.50581     0.51604
O     -3.12834     4.41935     1.03780
O     -1.58227     4.47100    -0.57907
H     -1.78076     3.50495    -0.65250
H     -3.01179     7.02928     0.25082
H     -1.89124     6.71869     1.56152
H     -1.27875     6.83843    -0.11290
C     -3.11165     1.32704    -0.24848
C     -3.47195    -0.09197    -0.51450
O     -2.11029     1.86704    -0.72134
O     -3.93505     1.95345     0.54981
H     -3.64084     2.88999     0.71308
H     -2.96349    -0.70006     0.23473
H     -4.54489    -0.22895    -0.42466
H     -3.10119    -0.39338    -1.48707
C      4.56610    -3.04524    -0.84650
C      5.97033    -3.07163    -1.37207
O      3.73541    -3.88137    -1.17165
O      4.31574    -2.05258    -0.02012
H      3.38166    -2.08990     0.30247
H      5.94085    -3.10949    -2.45748
H      6.52177    -2.20290    -1.03197
H      6.45355    -3.98303    -1.02818
C      0.04451    -0.98220    -1.91756
C      1.19859    -1.57753    -2.66387
O     -0.81732    -1.63228    -1.37319
O      0.07967     0.35084    -1.89245
H     -0.69226     0.68024    -1.40184
H      0.92685    -2.56553    -3.01663
H      1.50998    -0.94245    -3.48654
H      2.03885    -1.68831    -1.98105
