 40
-1146.2834135255755
C      0.40369    -2.04154    -0.19683
C     -1.00352    -2.53578    -0.08371
O      1.36074    -2.64253     0.26038
O      0.50683    -0.89173    -0.83526
H      1.43954    -0.56558    -0.81060
H     -1.01015    -3.60618     0.08516
H     -1.48402    -2.04187     0.75735
H     -1.55693    -2.27648    -0.97905
C      3.90999    -0.49740     0.00652
C      5.22015     0.18146     0.21613
O      3.00591     0.00451    -0.66217
O      3.79328    -1.66363     0.58369
H      2.88122    -2.04620     0.44967
H      5.06066     1.03410     0.87404
H      5.93736    -0.50713     0.64785
H      5.56749     0.57521    -0.73461
C      2.86274     3.45166     0.36038
C      2.36150     4.86091     0.51511
O      3.77711     2.96883     0.98023
O      2.15896     2.77481    -0.56139
H      2.52678     1.87757    -0.61734
H      1.31025     4.84452     0.79728
H      2.94280     5.36928     1.27547
H      2.44007     5.38881    -0.43374
C     -4.80855    -1.81277     0.42914
C     -5.83208    -2.83373     0.83048
O     -4.14788    -1.20235     1.25826
O     -4.67935    -1.65224    -0.86733
H     -4.00860    -0.94516    -1.07712
H     -6.55990    -2.36478     1.48753
H     -6.31666    -3.24527    -0.04678
H     -5.33939    -3.61945     1.39791
C     -2.23240     0.82341    -0.57975
C     -1.24958     1.87205    -0.99096
O     -2.86504     0.16486    -1.39280
O     -2.36226     0.68302     0.72173
H     -3.05943     0.00872     0.93766
H     -0.61444     1.47639    -1.77671
H     -1.79908     2.72189    -1.39483
H     -0.65273     2.18273    -0.14240
