 64
-1834.0639277680623
C     -2.18140    -0.37422    -3.69703
C     -1.52784     0.60943    -4.61172
O     -3.31999    -0.24292    -3.27557
O     -1.41365    -1.39933    -3.37859
H     -1.91041    -2.03544    -2.81683
H     -2.27754     1.27004    -5.03228
H     -0.81996     1.19065    -4.02648
H     -0.98139     0.08674    -5.39219
C      2.28109    -0.27911    -0.45501
C      1.34395    -0.91009    -1.42075
O      2.67129     0.88091    -0.54620
O      2.67421    -1.06484     0.52460
H      3.24676    -0.56583     1.15109
H      1.62690    -0.64590    -2.43621
H      1.32334    -1.98057    -1.28273
H      0.35906    -0.48231    -1.24558
C     -3.98389    -2.92584    -1.44989
C     -4.64805    -3.87989    -0.51560
O     -2.83270    -3.09357    -1.85016
O     -4.71791    -1.91222    -1.81893
H     -4.20858    -1.29068    -2.41341
H     -5.65566    -3.55085    -0.28595
H     -4.66562    -4.86600    -0.97599
H     -4.05051    -3.95507     0.39033
C      4.94888     1.27697     1.76549
C      6.03029     1.84233     2.62510
O      4.07788     0.52124     2.19307
O      4.99794     1.65736     0.51470
H      4.18986     1.35628     0.03559
H      6.21761     1.18044     3.46335
H      6.92806     2.01160     2.04065
H      5.67376     2.79849     3.00439
C     -1.68224     0.44487     1.19565
C     -2.60526    -0.48871     0.48394
O     -1.96474     1.57239     1.51711
O     -0.46602    -0.08329     1.43213
H      0.08906     0.58076     1.87985
H     -3.58709    -0.03857     0.41306
H     -2.23449    -0.65042    -0.52120
H     -2.66560    -1.45060     0.97831
C     -0.81449    -3.36307     1.00623
C      0.36935    -3.18577     1.90831
O     -1.94153    -3.56571     1.38828
O     -0.49211    -3.26335    -0.29238
H     -1.30229    -3.34252    -0.82475
H      1.27234    -3.03095     1.33138
H      0.19351    -2.32638     2.54880
H      0.46517    -4.06762     2.53913
C      1.66668     2.95096     2.79014
C      0.39788     3.65977     3.13153
O      2.74717     3.46307     2.67679
O      1.48125     1.61299     2.62169
H      2.35945     1.20290     2.51281
H      0.55686     4.73228     3.08006
H     -0.38840     3.35235     2.44900
H      0.08911     3.38745     4.14157
C     -0.53473     2.56333    -1.05389
C     -1.60802     3.60311    -0.97339
O     -0.62858     1.51719    -1.65713
O      0.56518     2.90060    -0.37520
H      1.22257     2.20513    -0.51887
H     -1.19072     4.58855    -1.17454
H     -2.39242     3.36552    -1.68370
H     -2.01672     3.60488     0.03544
