 40
-1146.2802438249519
C      0.35889    -1.49852    -1.66484
C     -1.12653    -1.72495    -1.69394
O      1.05851    -1.44385    -2.64416
O      0.81298    -1.32111    -0.41049
H      1.77925    -1.18992    -0.42046
H     -1.50733    -1.97420    -0.70936
H     -1.60333    -0.80816    -2.03573
H     -1.36685    -2.50967    -2.40699
C      4.42033    -0.02246     0.29389
C      5.84647    -0.43829     0.49082
O      3.54770    -0.74870    -0.13557
O      4.20830     1.24691     0.62271
H      3.25657     1.44553     0.52106
H      6.50202     0.22212    -0.07303
H      6.11288    -0.34705     1.54195
H      5.97424    -1.46251     0.16317
C      1.00466     1.84418    -0.65662
C      1.90350     2.02723    -1.83523
O      1.42346     1.79368     0.49535
O     -0.26352     1.71411    -0.96322
H     -0.80174     1.48115    -0.17038
H      2.19623     1.03499    -2.17882
H      1.38861     2.54280    -2.64112
H      2.79350     2.57196    -1.53610
C     -4.51614    -0.93748    -0.07820
C     -5.76086    -1.30955    -0.83477
O     -3.98217    -1.62659     0.75651
O     -4.05041     0.26397    -0.45192
H     -3.27794     0.47703     0.09690
H     -6.03137    -2.33342    -0.60355
H     -6.57266    -0.64091    -0.55263
H     -5.59452    -1.19099    -1.90321
C     -1.25818     0.32175     2.13406
C     -2.07884    -0.47736     3.08812
O     -1.72914     0.89615     1.15518
O      0.02185     0.36744     2.42664
H      0.51724     0.86782     1.74414
H     -2.56259    -1.28631     2.54396
H     -1.45910    -0.86071     3.89038
H     -2.87189     0.15553     3.47893
