 80
-2292.586526550165
C      0.19915     1.64960    -3.59377
C     -0.77298     1.95065    -4.68636
O      0.27258     2.31030    -2.57286
O      0.95568     0.58995    -3.82064
H      1.57208     0.46111    -3.06886
H     -0.64965     1.24496    -5.50004
H     -1.77793     1.88883    -4.27451
H     -0.61667     2.96943    -5.03323
C     -5.33815     1.99764    -0.30919
C     -6.52556     2.81894     0.06654
O     -4.84792     1.17242     0.45675
O     -4.86630     2.21951    -1.50647
H     -4.08683     1.63166    -1.70362
H     -6.26502     3.42686     0.92940
H     -6.83525     3.45002    -0.75882
H     -7.33541     2.15718     0.36662
C      1.98492    -4.55095    -1.83312
C      1.75080    -4.70393    -3.30386
O      2.81386    -5.19999    -1.21631
O      1.21355    -3.64285    -1.27079
H      1.53103    -3.45071    -0.35954
H      0.68360    -4.71001    -3.50936
H      2.18448    -3.84220    -3.80924
H      2.21801    -5.61322    -3.66509
C      0.62749    -0.25828     2.70974
C     -0.50388     0.70164     2.89897
O      1.51471    -0.44988     3.50417
O      0.56023    -0.89256     1.52420
H      1.20797    -1.61942     1.50673
H     -1.21929     0.26827     3.59491
H     -0.14075     1.63347     3.31694
H     -1.00470     0.89367     1.96116
C      3.30635    -3.50699     1.59916
C      3.95510    -2.92392     2.80260
O      2.28678    -3.04751     1.09243
O      3.91961    -4.55080     1.10189
H      3.46869    -4.85559     0.27291
H      4.81844    -2.34963     2.46904
H      3.25669    -2.26524     3.30514
H      4.30507    -3.71645     3.45963
C     -4.12333     2.27357     3.76374
C     -3.45439     2.35151     5.09855
O     -4.63202     3.21456     3.18510
O     -4.09468     1.05071     3.24987
H     -4.48279     1.07811     2.36043
H     -3.61641     1.43579     5.65773
H     -2.38516     2.46878     4.92701
H     -3.81496     3.21719     5.64363
C     -1.99996     4.00158     1.27061
C     -1.10494     4.41959     0.13901
O     -1.61142     3.56152     2.32532
O     -3.30085     4.15443     0.97052
H     -3.81482     3.91900     1.77017
H     -1.20469     5.49090    -0.03360
H     -0.07655     4.18093     0.38473
H     -1.39014     3.89991    -0.77407
C     -2.27986    -0.14313    -1.27380
C     -1.09802    -0.96461    -1.66707
O     -2.83409     0.63465    -2.03929
O     -2.66458    -0.31830    -0.02743
H     -3.46252     0.22460     0.17542
H     -1.09787    -1.91251    -1.14626
H     -1.09258    -1.09775    -2.74127
H     -0.19679    -0.42637    -1.38798
C      2.57037     0.94036    -0.58184
C      3.52057     0.73596     0.54493
O      2.51505     0.20346    -1.56521
O      1.78552     1.98383    -0.44736
H      1.22437     2.11178    -1.25450
H      3.59501     1.63451     1.14775
H      3.13643    -0.07384     1.16368
H      4.48807     0.42165     0.17148
C      5.12571    -2.39103    -1.27593
C      6.00343    -3.51874    -1.71518
O      5.26559    -1.77052    -0.25079
O      4.12239    -2.15548    -2.13388
H      3.62804    -1.38262    -1.81844
H      6.13827    -3.51111    -2.79326
H      6.96092    -3.44950    -1.20896
H      5.52269    -4.45390    -1.43175
