 48
-1375.5454267901541
C      1.60132     2.65186     1.17442
C      2.83753     2.66657     2.01294
O      1.50713     3.22805     0.10261
O      0.61635     1.94905     1.70277
H     -0.19398     2.01021     1.14785
H      2.58061     2.86474     3.04998
H      3.29913     1.68324     1.96083
H      3.52673     3.41285     1.63523
C      2.13533    -0.84654    -0.70823
C      1.05185     0.00344    -1.27689
O      2.21895    -2.04682    -0.91738
O      2.98383    -0.18150     0.04820
H      3.68896    -0.78316     0.41149
H      0.63513    -0.47868    -2.15024
H      0.26399     0.08472    -0.53777
H      1.42940     0.99124    -1.50580
C     -1.55609     2.41022    -1.04418
C     -2.66625     2.08871    -1.98540
O     -1.61096     2.14007     0.15471
O     -0.51880     2.98712    -1.59420
H      0.21837     3.13058    -0.94082
H     -2.69297     1.00623    -2.10059
H     -3.60703     2.40012    -1.54289
H     -2.50797     2.57245    -2.94440
C     -4.82673     0.71541     1.07059
C     -6.12385     0.65375     1.81830
O     -4.41598    -0.15622     0.33385
O     -4.17155     1.84837     1.29100
H     -3.32467     1.83803     0.80055
H     -6.65500    -0.25302     1.55438
H     -5.92680     0.67042     2.88773
H     -6.72566     1.52706     1.57915
C      4.88118    -3.01143     0.82850
C      5.96702    -3.85847     1.42659
O      4.82696    -1.80318     1.01612
O      4.01501    -3.67644     0.10064
H      3.32875    -3.06533    -0.28228
H      5.81170    -4.90230     1.17969
H      6.92758    -3.51834     1.04685
H      5.97362    -3.71658     2.50432
C     -2.08749    -2.09366    -1.32723
C     -1.26889    -3.24916    -1.83103
O     -1.83299    -0.93275    -1.55936
O     -3.12547    -2.49041    -0.59289
H     -3.59404    -1.69872    -0.26868
H     -0.25421    -3.16909    -1.44526
H     -1.71098    -4.19272    -1.52837
H     -1.20626    -3.19297    -2.91649
