 48
-1375.5371383162828
C     -2.67254    -1.30264    -1.07846
C     -3.30117    -0.85817    -2.36262
O     -1.51738    -1.10337    -0.77932
O     -3.54258    -1.91734    -0.27394
H     -3.07219    -2.17092     0.54026
H     -4.25074    -1.35962    -2.51658
H     -3.46174     0.21833    -2.30956
H     -2.62199    -1.05393    -3.18814
C      2.27856     0.19433    -0.06039
C      0.95221     0.87549    -0.12209
O      2.48549    -0.77958     0.65767
O      3.19506     0.71836    -0.84267
H      4.04445     0.20657    -0.79484
H      1.05219     1.85469    -0.57381
H      0.26752     0.26653    -0.70356
H      0.54908     0.94995     0.88100
C     -2.91702     1.98542     0.83887
C     -3.41943     1.03555     1.88026
O     -3.49596     2.17260    -0.22167
O     -1.79587     2.58447     1.17108
H     -1.50135     3.18810     0.44323
H     -4.34222     0.58194     1.54430
H     -2.67232     0.26671     2.05457
H     -3.57643     1.56973     2.81493
C     -1.34555     3.96385    -2.01657
C     -0.63024     4.58625    -3.18122
O     -0.88189     3.99738    -0.88651
O     -2.48865     3.38911    -2.32686
H     -2.89315     2.95567    -1.52772
H     -1.23285     4.51194    -4.07843
H     -0.40532     5.62342    -2.94798
H      0.31698     4.06986    -3.31806
C      5.62131    -1.69374    -0.06875
C      6.90799    -2.46838    -0.08984
O      5.46722    -0.68187    -0.73526
O      4.69990    -2.20279     0.71890
H      3.86858    -1.65543     0.69437
H      7.72257    -1.80406     0.18664
H      6.85528    -3.31167     0.58867
H      7.09582    -2.80826    -1.10536
C     -1.02097    -2.88234     2.40467
C      0.15786    -2.83840     1.49084
O     -2.15642    -2.54524     2.14553
O     -0.70639    -3.36497     3.61850
H     -1.51639    -3.35745     4.14353
H      0.36866    -3.85008     1.14729
H     -0.04583    -2.21077     0.63471
H      1.03378    -2.47164     2.01270
