 72
-2063.3263711831974
C      4.36150    -4.23859    -0.39350
C      5.19984    -5.48500    -0.39748
O      3.36415    -4.12098    -1.08851
O      4.79264    -3.29989     0.42456
H      4.23630    -2.48558     0.33647
H      4.56104    -6.34158    -0.19734
H      5.62385    -5.61911    -1.38994
H      5.98863    -5.41463     0.34265
C     -4.15811     2.02198    -1.20698
C     -4.79847     1.25232    -2.31420
O     -3.38021     1.50985    -0.40035
O     -4.48705     3.28590    -1.16766
H     -4.08942     3.74775    -0.37867
H     -4.02778     0.75622    -2.89642
H     -5.41023     0.46429    -1.88208
H     -5.39719     1.91033    -2.93378
C     -2.87448     3.99792     1.83651
C     -2.41262     4.74572     3.05053
O     -3.43856     4.53586     0.89522
O     -2.59873     2.70894     1.87663
H     -2.90364     2.25707     1.05713
H     -1.33113     4.65710     3.13472
H     -2.69628     5.78835     2.97043
H     -2.84911     4.30013     3.94127
C     -2.59115    -1.77535     1.93274
C     -4.03885    -1.53349     1.64802
O     -2.06315    -2.86717     1.78890
O     -1.95256    -0.70899     2.35185
H     -0.99633    -0.91264     2.49469
H     -4.62800    -1.82988     2.51548
H     -4.19316    -0.47917     1.45047
H     -4.34330    -2.13445     0.79762
C     -2.56333    -1.85804    -1.77021
C     -1.76922    -3.11812    -1.89733
O     -3.68085    -1.68431    -2.18675
O     -1.88920    -0.91218    -1.08290
H     -2.45110    -0.12414    -1.00385
H     -2.26654    -3.78815    -2.59398
H     -0.75985    -2.90244    -2.23290
H     -1.70606    -3.58722    -0.91740
C      1.06182    -2.48796     2.74600
C      2.43927    -2.76525     3.26731
O      0.60960    -1.35461     2.67959
O      0.40461    -3.55723     2.36398
H     -0.52817    -3.31893     2.12064
H      2.47274    -2.53087     4.33063
H      2.70414    -3.80394     3.10894
H      3.14408    -2.11121     2.76145
C      4.09164     2.08327    -1.71266
C      5.40100     1.35626    -1.70990
O      3.42309     2.25348    -2.72009
O      3.72509     2.49878    -0.51784
H      2.87109     3.00125    -0.56498
H      5.70964     1.15362    -2.72912
H      6.14959     1.95131    -1.19291
H      5.27491     0.42261    -1.16450
C      0.60383     3.63275    -1.61656
C     -0.81162     4.10986    -1.50660
O      1.38592     3.72865    -0.68272
O      0.90893     3.09278    -2.77230
H      1.85888     2.79479    -2.78130
H     -1.33844     4.01864    -2.44695
H     -1.31224     3.51409    -0.74972
H     -0.82381     5.13600    -1.15586
C      2.06785    -1.20666    -0.14997
C      1.13545    -0.05522     0.03972
O      3.25214    -1.17101     0.14744
O      1.50118    -2.27556    -0.66285
H      2.18081    -2.97627    -0.85062
H      0.12518    -0.41004     0.20051
H      1.46009     0.54342     0.88298
H      1.16250     0.55820    -0.85880
