 56
-1604.8111426569558
C      1.97413     1.54055    -1.50909
C      0.99079     2.49315    -2.12072
O      2.60286     1.75928    -0.50389
O      2.07851     0.39994    -2.21083
H      2.73280    -0.18024    -1.78325
H      1.50486     3.10370    -2.86380
H      0.19205     1.94352    -2.60469
H      0.59344     3.14294    -1.34787
C     -0.63429    -1.25244    -2.79524
C      0.33351    -1.77680    -3.80464
O     -0.80513    -1.78077    -1.70554
O     -1.27661    -0.17579    -3.18251
H     -1.97306     0.08694    -2.51681
H      1.02542    -0.98408    -4.07303
H      0.86699    -2.61596    -3.37840
H     -0.20709    -2.07864    -4.70140
C     -0.63282     0.92638     1.75368
C      0.53799     0.06348     1.42345
O     -1.29388     0.80835     2.77150
O     -0.90268     1.82690     0.82763
H     -3.80502     5.43624     3.28044
H      1.38056     0.68105     1.13411
H      0.79419    -0.57086     2.26332
H      0.27498    -0.56096     0.57551
C      1.60682    -3.50572     0.01962
C      0.63678    -4.64346    -0.01653
O      1.76803    -2.80109     1.00290
O      2.25450    -3.32284    -1.11472
H      2.87368    -2.55684    -1.02757
H      1.09971    -5.51732    -0.46725
H      0.29311    -4.86373     0.98738
H     -0.21008    -4.34935    -0.63299
C     -3.23743    -0.03850    -0.31359
C     -4.23493     0.45939     0.68352
O     -3.09987     0.45673    -1.41866
O     -2.52941    -1.05238     0.12664
H     -1.88908    -1.35753    -0.56707
H     -3.81095     0.40432     1.67952
H     -4.50822     1.48008     0.43992
H     -5.12048    -0.17336     0.64997
C     -3.29659     3.42600     2.82824
C     -4.28598     4.46119     3.27729
O     -2.73506     3.49702     1.74392
O     -3.11292     2.44570     3.68339
H     -2.41574     1.81287     3.35548
H     -1.59720     2.45983     1.14215
H     -5.09828     4.50119     2.55482
H     -4.66738     4.22005     4.26265
C      4.26901    -0.78961     0.23079
C      5.46839     0.08678     0.35916
O      3.91206    -1.26493    -0.84923
O      3.62143    -0.98466     1.34434
H      2.82760    -1.57870     1.22614
H      5.94798    -0.08148     1.31840
H      6.15084    -0.09342    -0.46368
H      5.12677     1.11921     0.32325
