 24
-687.7589119382169
C     -1.92449    -3.04292     0.02896
C     -0.50266    -2.82776    -0.39253
O     -2.83332    -2.26578    -0.11652
O     -2.10388    -4.24314     0.62695
H     -3.03775    -4.28261     0.86666
H     -0.07261    -3.75078    -0.77493
H     -0.45561    -2.03543    -1.13034
H      0.08077    -2.50638     0.46967
C      2.79000     1.99412    -0.06032
C      4.25891     2.30163    -0.09144
O      1.95949     2.83593     0.24482
O      2.49154     0.75491    -0.38538
H      1.50955     0.60652    -0.34322
H      4.42792     3.14548    -0.75544
H      4.57517     2.60186     0.90456
H      4.82133     1.43638    -0.42235
C     -0.96901     1.18009    -0.05458
C     -2.43148     0.88099    -0.07191
O     -0.11577     0.32777    -0.27746
O     -0.68240     2.43160     0.22505
H      0.30002     2.58059     0.23207
H     -2.68201     0.37871    -1.00142
H     -2.65765     0.17529     0.72163
H     -2.99925     1.79568     0.04863
