 56
-1604.800689318571
C      4.07802     1.16725    -0.36202
C      5.22635     1.50625    -1.25622
O      3.95998     0.14077     0.26347
O      3.15884     2.14450    -0.32195
H      2.43242     1.85452     0.25568
H      6.08379     0.89606    -0.99007
H      4.94298     1.28335    -2.28344
H      5.46947     2.56338    -1.18390
C      1.43965    -2.02999    -0.13538
C      2.76670    -2.67758    -0.36448
O      0.73158    -1.57438    -1.00900
O      1.08472    -1.98849     1.14940
H      0.14919    -1.71325     1.19592
H      2.71324    -3.72833    -0.08099
H      3.03532    -2.58341    -1.41054
H      3.51237    -2.18700     0.25272
C     -2.42080     1.69628     1.09138
C     -3.81003     1.86143     0.56504
O     -2.18861     1.57143     2.28357
O     -1.49255     1.69375     0.16166
H      2.43661     0.44887     3.98798
H     -3.79556     2.33760    -0.41041
H     -4.25729     0.87309     0.46886
H     -4.40793     2.43970     1.26382
C     -2.46472    -1.66382     2.00915
C     -2.26223    -1.84351     3.47254
O     -1.56346    -1.48359     1.21044
O     -3.73709    -1.67900     1.65443
H     -3.82205    -1.60988     0.67878
H     -3.05979    -2.43716     3.90608
H     -1.29035    -2.29040     3.65230
H     -2.26833    -0.85200     3.92482
C     -3.41875    -1.20148    -2.03171
C     -2.05409    -0.61754    -1.91996
O     -4.17515    -1.43298    -1.10586
O     -3.79579    -1.45230    -3.29231
H     -4.68361    -1.83032    -3.25317
H     -1.39797    -0.97666    -2.70341
H     -2.13718     0.46352    -2.00913
H     -1.62999    -0.84782    -0.95254
C      1.08209     0.96717     2.42321
C      2.41287     0.50097     2.90345
O      0.89335     1.45456     1.31160
O      0.11015     0.79567     3.28148
H     -0.75099     1.12238     2.90750
H     -0.59609     1.58648     0.56119
H      2.59522    -0.48338     2.47592
H      3.18581     1.15831     2.52039
C      1.94248     0.84582    -3.07350
C      2.07986     2.16347    -3.78560
O      2.83670     0.03840    -2.99435
O      0.73494     0.69073    -2.52624
H      0.70157    -0.15424    -2.02711
H      2.65471     2.02863    -4.69888
H      1.10738     2.59376    -4.00638
H      2.63160     2.84405    -3.13754
