 32
-917.0158521456772
C     -0.95394    -3.82255    -1.13299
C     -1.37766    -5.19364    -1.57980
O      0.12814    -3.33031    -1.33296
O     -1.93759    -3.19852    -0.46473
H     -1.62979    -2.30684    -0.22885
H     -0.56042    -5.66955    -2.10926
H     -1.66337    -5.79167    -0.71610
H     -2.24876    -5.11651    -2.22811
C     -2.69439     2.58691    -0.58262
C     -3.63527     3.68704    -0.96333
O     -1.50978     2.78499    -0.36110
O     -3.25657     1.39795    -0.50871
H     -2.58758     0.72058    -0.26685
H     -3.63581     4.43762    -0.17717
H     -3.26976     4.16514    -1.86840
H     -4.63347     3.29445    -1.11579
C      3.98477     1.23365     1.17278
C      5.31967     1.89616     1.36841
O      3.77548     0.05914     1.34595
O      3.03864     2.10320     0.77715
H      2.20404     1.62023     0.65798
H      6.02735     1.46942     0.66091
H      5.24410     2.96815     1.22402
H      5.68000     1.66798     2.36844
C     -0.17222    -0.19201     0.43465
C      0.81852    -1.21487     0.85606
O     -1.33706    -0.44428     0.15824
O      0.30708     1.03891     0.37071
H     -0.39876     1.68737     0.08598
H      1.43645    -0.83331     1.65996
H      0.29508    -2.11889     1.14151
H      1.46038    -1.44272     0.00721
