 64
-1834.06211036818
C     -1.82057    -1.65202     0.88679
C     -0.95380    -1.82288     2.08758
O     -1.77595    -2.42188    -0.07053
O     -2.64330    -0.63165     0.93110
H     -3.08835    -0.51137     0.05739
H      0.07121    -1.61473     1.79593
H     -1.25635    -1.14493     2.87589
H     -0.99256    -2.85513     2.42463
C      3.34612    -1.59107     2.74011
C      3.50791    -2.90322     3.43033
O      4.13444    -1.16682     1.90722
O      2.26221    -0.92390     3.09545
H      2.19581    -0.09104     2.58381
H      3.05235    -2.86095     4.41452
H      2.98922    -3.65020     2.83115
H      4.55962    -3.16413     3.48693
C     -3.62107    -1.04734    -2.45039
C     -4.15892    -0.67034    -3.78875
O     -3.74183    -0.33244    -1.45623
O     -2.99043    -2.19544    -2.41580
H     -2.58256    -2.34995    -1.53044
H     -5.11255    -0.16460    -3.67178
H     -3.45993     0.03776    -4.23603
H     -4.24749    -1.54628    -4.42218
C      3.12957     1.88064     1.03449
C      3.06018     3.21552     0.38451
O      2.18118     1.39270     1.65972
O      4.25695     1.24607     0.89269
H      4.22399     0.32971     1.29640
H      2.71591     3.04735    -0.63648
H      2.33129     3.83407     0.89508
H      4.04357     3.67342     0.35931
C      1.80725    -3.35127    -0.27410
C      3.15384    -3.34369    -0.93637
O      1.64426    -3.47321     0.91648
O      0.79881    -3.21036    -1.14292
H     -0.03075    -3.13479    -0.64783
H      3.69660    -4.23624    -0.63383
H      3.05457    -3.31011    -2.01692
H      3.71399    -2.47894    -0.58612
C     -2.16828     2.57548    -2.56837
C     -1.33946     3.82150    -2.54688
O     -2.10688     1.73129    -3.43291
O     -2.98996     2.47869    -1.51422
H     -3.42195     1.61148    -1.55268
H     -1.59226     4.43101    -1.68683
H     -0.28940     3.53971    -2.50334
H     -1.50379     4.37297    -3.47136
C     -1.17671     2.81055     1.89612
C     -2.65807     2.79978     2.11998
O     -0.58307     3.57511     1.17752
O     -0.54918     1.84272     2.59508
H      0.39849     1.92711     2.41795
H     -2.88830     3.35262     3.03219
H     -3.14982     3.27898     1.27966
H     -3.00706     1.77828     2.23523
C      0.68071     0.44203    -1.38190
C     -0.09499    -0.29470    -2.41904
O      1.36018     1.41750    -1.57535
O      0.53457    -0.08518    -0.14657
H      0.98300     0.49515     0.49365
H      0.26242    -1.31551    -2.50235
H     -1.13592    -0.33574    -2.12545
H     -0.01906     0.21880    -3.37019
