 80
-2292.577921554573
C      6.49332    -2.69823     1.41935
C      7.43525    -3.68086     2.05473
O      6.40182    -2.58848     0.20667
O      5.78400    -1.99629     2.27665
H      5.18758    -1.35372     1.80365
H      7.18959    -4.67911     1.70070
H      8.44771    -3.45904     1.72717
H      7.36354    -3.63041     3.13486
C     -5.45051     2.11132     0.65457
C     -6.88199     2.26057     1.04275
O     -5.05668     2.18261    -0.50855
O     -4.64325     1.88499     1.65931
H     -3.70735     1.77720     1.36433
H     -7.35997     2.98990     0.39670
H     -7.36232     1.29604     0.88679
H     -6.95909     2.54156     2.08705
C     -2.03307    -1.63029    -0.27496
C     -3.43720    -1.24091    -0.59971
O     -1.06971    -1.16639    -0.87513
O     -1.90543    -2.49931     0.68962
H     -0.95579    -2.76259     0.76270
H     -3.47074    -0.91223    -1.63155
H     -4.12615    -2.06143    -0.44013
H     -3.74860    -0.41820     0.03558
C      3.05067     3.77327     1.50717
C      3.76293     5.04272     1.89638
O      2.40987     3.62637     0.49690
O      3.22266     2.81343     2.42640
H      2.73893     2.02063     2.14177
H      3.63050     5.78933     1.12115
H      3.36449     5.41257     2.83921
H      4.82172     4.83885     2.04310
C      1.59105    -2.93424    -0.08625
C      2.88663    -3.67187     0.00618
O      0.64723    -3.15237     0.65437
O      1.58793    -2.00824    -1.02144
H      0.71486    -1.56676    -1.09763
H      3.34922    -3.74245    -0.97126
H      3.55705    -3.11040     0.65279
H      2.73762    -4.65456     0.44032
C     -6.54216    -0.56712    -1.72611
C     -7.10583    -1.66541    -2.58450
O     -6.62821    -0.52599    -0.52299
O     -5.92292     0.36170    -2.46865
H     -5.58741     1.05921    -1.87934
H     -6.29467    -2.18175    -3.09504
H     -7.65583    -2.36888    -1.96961
H     -7.75635    -1.24537    -3.34856
C      0.75719    -0.00241     2.54110
C      1.44157    -0.96867     3.45386
O      1.32638     0.77230     1.80036
O     -0.56476    -0.09534     2.60114
H     -0.95682     0.55053     1.99129
H      1.14553    -1.97525     3.17251
H      2.51570    -0.85679     3.36379
H      1.12717    -0.79327     4.48165
C     -1.66808     1.97171    -0.25855
C     -0.23212     2.20993    -0.52197
O     -2.10077     1.57699     0.82390
O     -2.46758     2.19318    -1.28023
H     -3.41580     2.17203    -1.00809
H      0.16539     1.31218    -0.99290
H     -0.09725     3.03874    -1.20790
H      0.30075     2.38237     0.39982
C      4.14258    -0.16083    -0.22085
C      3.21457     0.82539    -0.82823
O      4.19302    -0.39065     0.98144
O      4.91455    -0.77485    -1.09254
H      5.51189    -1.41483    -0.63358
H      2.33419     0.90610    -0.20793
H      3.70780     1.79661    -0.83540
H      2.96573     0.51880    -1.83541
C     -0.04451     0.17496    -3.71389
C      0.17406     0.66269    -5.12143
O      0.74383     0.30070    -2.80764
O     -1.23623    -0.41021    -3.56098
H     -1.28220    -0.70319    -2.63496
H      0.06597    -0.16420    -5.82037
H     -0.57912     1.40962    -5.36737
H      1.16407     1.09616    -5.20662
