 72
-2063.3295233176555
C     -0.61395    -0.21164     3.11004
C     -0.92089     1.22437     2.83713
O      0.44953    -0.55403     3.60269
O     -1.56658    -1.05672     2.77873
H     -1.32326    -1.97700     3.05294
H     -1.85753     1.32445     2.30653
H     -0.95845     1.76849     3.77596
H     -0.10111     1.62407     2.25436
C     -1.11363     3.71824     0.27496
C     -1.69845     3.21205    -0.99792
O      0.09846     3.86228     0.43087
O     -1.98166     3.98957     1.21060
H     -1.53404     4.33949     2.02603
H     -2.74710     3.47698    -1.08198
H     -1.12551     3.58515    -1.83929
H     -1.59514     2.12806    -0.99396
C      0.43273     4.86883     3.61905
C      1.04281     5.28135     4.92602
O     -0.77359     4.81686     3.43587
O      1.32254     4.56087     2.69537
H      0.88174     4.31583     1.84877
H      1.65644     6.16706     4.77700
H      0.26143     5.48625     5.64758
H      1.69378     4.48910     5.28868
C      0.12930    -3.78585     4.20566
C      0.34926    -5.16580     4.75550
O     -0.84005    -3.51178     3.50720
O      1.05600    -2.92189     4.53779
H      0.84706    -2.01594     4.16855
H      0.29847    -5.88431     3.94157
H      1.30829    -5.22018     5.25596
H     -0.45426    -5.40043     5.45004
C      1.85287     2.00903    -3.69842
C      2.70823     3.24624    -3.76902
O      2.24313     0.89790    -3.96127
O      0.60768     2.28014    -3.27732
H      0.10689     1.44443    -3.18895
H      2.19067     4.03911    -4.30555
H      2.90790     3.59595    -2.75730
H      3.64487     3.00597    -4.26109
C     -1.02775    -3.93498    -0.75556
C     -1.83051    -4.16442     0.48146
O     -1.45074    -4.17489    -1.87559
O      0.18063    -3.45639    -0.52985
H      0.63721    -3.27287    -1.38878
H     -2.01119    -3.21524     0.98144
H     -2.77333    -4.63850     0.22816
H     -1.26453    -4.77717     1.17697
C      1.38212     0.71773    -0.42869
C      2.20812    -0.37722    -0.99765
O      0.23410     0.59353    -0.03305
O      2.00281     1.88812    -0.40165
H      1.37893     2.56884    -0.09857
H      1.91956    -1.34398    -0.59690
H      2.04025    -0.40101    -2.07373
H      3.26183    -0.18028    -0.82401
C     -1.81471    -0.54404    -2.33057
C     -3.01306    -1.10499    -3.02721
O     -0.93348     0.07270    -2.89640
O     -1.78661    -0.79588    -1.03436
H     -0.98751    -0.37623    -0.64751
H     -2.83626    -2.16191    -3.21521
H     -3.89766    -1.01340    -2.40381
H     -3.15700    -0.59878    -3.97665
C      0.81882    -2.97642    -3.96671
C      1.52954    -2.53616    -5.20666
O      1.29573    -2.84618    -2.84871
O     -0.37589    -3.48879    -4.18144
H     -0.78124    -3.77975    -3.32501
H      2.53397    -2.95194    -5.20616
H      0.98181    -2.85061    -6.08816
H      1.62417    -1.45231    -5.18559
