 32
-917.0182430918844
C      1.07965    -2.91196     1.91264
C      1.79156    -4.19431     2.24593
O      1.54220    -1.80743     2.05360
O     -0.15810    -3.14096     1.44582
H     -0.56507    -2.28898     1.19904
H      2.76950    -3.96834     2.65488
H      1.20533    -4.76520     2.96361
H      1.89335    -4.80211     1.34862
C     -1.81636    -0.04790     1.45205
C     -1.79985    -0.51987     2.87258
O     -1.46499    -0.77887     0.52666
O     -2.21775     1.17886     1.28619
H     -2.16475     1.46461     0.32136
H     -0.76245    -0.55066     3.20244
H     -2.37630     0.14470     3.50707
H     -2.18635    -1.53403     2.91151
C      2.16825     1.83196    -1.14637
C      2.28237     0.35744    -0.90397
O      1.47389     2.36342    -1.97731
O      2.95110     2.54695    -0.31244
H      2.80220     3.47608    -0.52650
H      2.05725     0.12674     0.13538
H      1.59877    -0.16309    -1.56105
H      3.30503     0.03373    -1.09897
C     -1.57867     1.35845    -2.12344
C     -1.35872     1.94923    -3.47296
O     -2.09298     1.96151    -1.19418
O     -1.15576     0.11015    -2.01879
H     -1.30524    -0.22121    -1.10516
H     -2.00984     2.80594    -3.60746
H     -0.32076     2.27192    -3.52804
H     -1.53125     1.19775    -4.23780
