 64
-1834.0754974766826
C     -2.46120    -0.95471    -0.83088
C     -3.35728     0.24090    -0.93468
O     -2.83393    -2.00840    -0.34115
O     -1.24585    -0.75409    -1.29220
H     -0.72184    -1.59414    -1.25655
H     -3.70246     0.50030     0.06145
H     -2.81839     1.07315    -1.36951
H     -4.23036    -0.00882    -1.53348
C      1.30230     3.19587    -2.46516
C      0.75049     4.58398    -2.53258
O      0.67433     2.22460    -2.85563
O      2.50149     3.11373    -1.92778
H      2.79395     2.16767    -1.89192
H     -0.01736     4.67056    -1.76488
H      1.53271     5.31402    -2.35567
H      0.27946     4.74132    -3.49869
C      0.21498    -1.99429     2.87290
C     -1.26970    -2.04610     3.04457
O      0.90927    -1.09635     3.32057
O      0.69952    -3.01441     2.19321
H      1.64025    -2.83374     1.93003
H     -1.50757    -2.76985     3.82341
H     -1.63997    -1.07004     3.33266
H     -1.72236    -2.37195     2.11497
C      2.64448    -0.36672    -2.39974
C      3.19545    -1.75662    -2.41459
O      3.12902     0.53855    -1.73232
O      1.59433    -0.22653    -3.16568
H      1.22725     0.68943    -3.08343
H      3.43150    -2.04018    -3.43780
H      4.08102    -1.81085    -1.79614
H      2.43108    -2.43488    -2.04329
C     -0.33208    -4.08299    -0.57423
C      0.59485    -5.24343    -0.41339
O     -0.02193    -3.06339    -1.17178
O     -1.50450    -4.24792    -0.00412
H     -2.04818    -3.42934    -0.12914
H      0.05458    -6.11233    -0.05506
H      1.08566    -5.45368    -1.35948
H      1.36067    -4.96084     0.30666
C     -4.44088     3.33044     1.24490
C     -5.86572     3.79346     1.33823
O     -3.93690     2.56074     2.04847
O     -3.79887     3.81504     0.20358
H     -2.84693     3.54008     0.21781
H     -6.39502     3.51130     0.43065
H     -6.34048     3.34844     2.20430
H     -5.89207     4.87824     1.41149
C     -0.81871     2.10486     0.94756
C      0.59346     1.64370     0.83257
O     -1.27391     3.02312     0.28398
O     -1.53502     1.42865     1.82204
H     -2.42716     1.84588     1.94080
H      0.88384     1.11188     1.73041
H      0.67877     0.98669    -0.03257
H      1.23330     2.50600     0.66532
C      3.70716    -1.35101     1.56040
C      4.99192    -0.99269     0.88549
O      3.13288    -2.41648     1.38217
O      3.25835    -0.39671     2.34318
H      2.40756    -0.66988     2.77127
H      5.42192    -1.87400     0.42405
H      4.77816    -0.24287     0.12549
H      5.68111    -0.56081     1.60661
