 72
-2063.328533328263
C      1.58540    -3.24009     1.28618
C      2.42494    -2.09226     0.82749
O      1.63848    -3.73981     2.38639
O      0.73986    -3.66611     0.33554
H      0.18839    -4.36576     0.71888
H      3.37170    -2.47539     0.44477
H      1.91339    -1.54660     0.04262
H      2.62750    -1.44605     1.67686
C      1.73118     3.04406    -0.83568
C      2.78636     3.83167    -1.54448
O      1.17807     2.08530    -1.33551
O      1.43743     3.49417     0.36987
H      0.71603     2.95112     0.75060
H      3.57408     4.13889    -0.86369
H      3.18750     3.22566    -2.34721
H      2.33764     4.72441    -1.97569
C     -1.69572     2.20570     1.40400
C     -2.09685     3.26609     0.43305
O     -0.52475     1.89477     1.60788
O     -2.69628     1.61917     2.01268
H     -2.37968     0.89447     2.61280
H     -3.03858     3.71735     0.73042
H     -1.31432     4.01240     0.35924
H     -2.21609     2.77786    -0.53496
C     -0.94061    -5.62091     2.90620
C      0.22929    -6.53188     3.07735
O     -1.27635    -5.17632     1.81026
O     -1.56238    -5.32509     4.01923
H     -2.30636    -4.68155     3.86542
H      0.30171    -7.19402     2.22025
H      1.12115    -5.90628     3.10390
H      0.14376    -7.08647     4.00551
C     -1.22063    -0.29487    -1.25753
C     -1.83525    -1.66290    -1.29108
O     -1.83827     0.73397    -1.40664
O      0.09183    -0.33150    -1.01834
H      0.46023     0.57451    -1.08133
H     -1.80653    -2.10132    -0.29725
H     -2.86519    -1.59536    -1.62985
H     -1.26200    -2.31359    -1.94912
C     -3.68067    -2.92530     2.60671
C     -4.67811    -1.81625     2.50725
O     -3.45667    -3.53536     3.63945
O     -3.05662    -3.19088     1.47374
H     -2.41694    -3.93370     1.58803
H     -4.14601    -0.87461     2.38564
H     -5.31187    -1.96394     1.63653
H     -5.27723    -1.78550     3.41034
C      4.13732     4.69108    -5.18044
C      5.42932     5.42645    -5.38089
O      3.09926     5.27662    -4.90734
O      4.23104     3.38739    -5.31013
H      3.34265     2.94943    -5.19013
H      6.24094     4.72752    -5.54508
H      5.32417     6.09355    -6.23302
H      5.62180     6.04235    -4.50627
C      0.83385     2.80641    -4.70184
C     -0.45573     2.07236    -4.53604
O      1.89066     2.24879    -4.95413
O      0.72951     4.10830    -4.52923
H      1.59758     4.55227    -4.70496
H     -1.27353     2.65047    -4.95486
H     -0.38635     1.09635    -5.00264
H     -0.64247     1.93985    -3.47099
C     -0.75731    -0.75791     3.76683
C     -0.41829    -1.86640     4.70738
O     -1.89451    -0.35482     3.58367
O      0.29221    -0.25247     3.14430
H      0.01468     0.47975     2.55453
H      0.15549    -1.46321     5.54062
H     -1.33468    -2.31595     5.06927
H      0.19767    -2.59638     4.19193
