 32
-917.0220509808519
C      1.34558    -0.16463    -1.57979
C      2.65622    -0.11714    -2.29205
O      1.05167     0.50943    -0.61065
O      0.48642    -1.01877    -2.12878
H     -0.34203    -1.00895    -1.61962
H      2.87352     0.91530    -2.55987
H      3.43656    -0.45621    -1.61490
H      2.62148    -0.74239    -3.17685
C     -2.55260     0.29896    -1.90307
C     -2.92116     0.22765    -3.35301
O     -2.16902    -0.69425    -1.28572
O     -2.65525     1.47752    -1.36007
H     -2.42336     1.46370    -0.37925
H     -3.22690     1.20110    -3.71829
H     -2.05929    -0.13525    -3.90805
H     -3.72305    -0.49590    -3.48073
C      2.95599    -0.67091     1.76462
C      3.55405    -1.00984     3.10426
O      3.44988    -0.96946     0.70467
O      1.80355     0.00058     1.88577
H      1.47507     0.21581     0.98535
H      3.96787    -0.10761     3.55363
H      2.78616    -1.39433     3.77213
H      4.34457    -1.74017     2.97229
C     -1.65770     0.56699     1.84692
C     -1.19731     0.70835     3.25767
O     -2.08990     1.49606     1.18049
O     -1.54797    -0.65967     1.37455
H     -1.78701    -0.68091     0.42165
H     -1.41763     1.70641     3.61969
H     -1.68564    -0.03940     3.87824
H     -0.12646     0.52645     3.29268
