 24
-687.7612622764478
C     -1.07264    -2.54321     0.07996
C      0.32181    -2.04962    -0.16280
O     -2.08516    -1.93522    -0.15776
O     -1.09294    -3.77879     0.61886
H     -2.02180    -4.00648     0.74783
H      0.96766    -2.84305    -0.52865
H      0.28513    -1.23169    -0.87233
H      0.73851    -1.67617     0.77105
C      2.38736     1.46486    -0.05554
C      3.88160     1.61338    -0.04088
O      1.75389     1.23810     0.96531
O      1.84206     1.58675    -1.24384
H      0.85001     1.48648    -1.19275
H      4.15179     2.38790     0.67192
H      4.32128     0.68162     0.30695
H      4.24745     1.85828    -1.03099
C     -1.43579     1.22475    -0.09131
C     -2.92546     1.19123    -0.10698
O     -0.75488     1.28405    -1.10538
O     -0.91488     1.16706     1.11717
H      0.07262     1.22359     1.06825
H     -3.31687     1.69403     0.77166
H     -3.29308     1.64396    -1.02167
H     -3.23169     0.14696    -0.07973
