 48
-1375.540197842505
C     -2.29652     0.02859    -1.22645
C     -3.38806     1.04887    -1.34770
O     -1.50874    -0.24765    -2.10232
O     -2.25892    -0.55181    -0.02198
H     -1.54304    -1.20474    -0.04235
H     -4.27747     0.71640    -0.81804
H     -3.04891     1.98145    -0.89902
H     -3.60454     1.22329    -2.39649
C      0.70833    -2.48903    -1.40710
C     -0.06786    -3.10941    -2.51453
O      0.24856    -2.31362    -0.27500
O      1.91323    -2.10474    -1.74096
H      2.40524    -1.70354    -0.97377
H     -0.77824    -2.35822    -2.85936
H      0.59463    -3.39309    -3.32585
H     -0.62981    -3.95729    -2.13485
C      0.81415     2.62028    -0.87013
C      1.11957     1.45306    -1.74858
O      1.61308     3.05290    -0.05089
O     -0.39565     3.10848    -1.03663
H     -0.57315     3.85292    -0.40177
H      0.68161     1.57027    -2.73240
H      2.19038     1.30635    -1.80429
H      0.66215     0.57653    -1.30295
C     -0.06325     5.50399     1.48933
C     -0.41008     6.62285     2.42833
O     -0.86737     5.06992     0.67654
O      1.16088     5.04509     1.62165
H      1.33530     4.30195     0.98323
H      0.43458     6.85939     3.06485
H     -0.70410     7.49281     1.84632
H     -1.26759     6.32627     3.02734
C      2.69366    -0.34308     1.19515
C      3.42524     0.57595     2.11797
O      3.21046    -0.90182     0.24331
O      1.40965    -0.47023     1.49236
H      0.98515    -1.12124     0.89770
H      3.13761     0.37511     3.14646
H      4.49455     0.45791     1.98240
H      3.13780     1.59876     1.87930
C     -1.94244    -5.15676     0.66403
C     -2.44213    -6.37978     1.37946
O     -2.51840    -4.58264    -0.22485
O     -0.74240    -4.76615     1.13330
H     -0.48607    -3.96538     0.65544
H     -2.49389    -6.18778     2.44966
H     -3.42211    -6.64547     0.99994
H     -1.74755    -7.20433     1.22686
