 56
-1604.8047185853213
C      2.43718     2.37514    -0.48215
C      1.66875     3.66069    -0.47443
O      3.50487     2.21409     0.06029
O      1.79844     1.39916    -1.13870
H      2.36684     0.61195    -1.14273
H      2.35444     4.49613    -0.38373
H      1.05438     3.75654    -1.36399
H      1.01171     3.66731     0.39314
C     -5.12089    -3.58303    -2.72448
C     -6.17849    -4.56663    -3.13374
O     -5.01730    -2.48715    -3.25216
O     -4.33194    -4.01039    -1.76106
H     -3.64538    -3.33066    -1.53428
H     -6.06070    -4.78803    -4.19154
H     -6.10252    -5.47315    -2.54479
H     -7.15543    -4.10774    -3.00366
C      1.08876     1.59041     2.71342
C      2.01781     0.45035     2.97434
O      1.29185     2.71560     3.14359
O      0.05543     1.29154     1.95381
H     -3.30683     5.19980     2.44178
H      2.89232     0.59431     2.34362
H      2.34048     0.47912     4.01211
H      1.54759    -0.49746     2.74211
C      1.13812    -2.99015     0.12487
C     -0.09583    -3.81261     0.29642
O      1.94581    -2.80888     1.02390
O      1.26611    -2.46165    -1.07660
H      2.08400    -1.91219    -1.12712
H      0.16175    -4.74261     0.79568
H     -0.78539    -3.26808     0.93704
H     -0.57181    -3.98723    -0.65904
C     -2.47540    -1.04153    -1.55585
C     -1.50216    -0.02299    -1.05385
O     -2.47830    -2.19696    -1.14397
O     -3.30551    -0.59539    -2.46827
H     -3.93176    -1.30743    -2.76670
H     -1.78482     0.97410    -1.37200
H     -1.45421    -0.07381     0.02861
H     -0.52155    -0.26931    -1.44951
C     -1.31184     4.49881     2.28478
C     -2.33304     5.59154     2.15721
O     -1.39230     3.46029     1.64033
O     -0.33993     4.75406     3.12698
H      0.29442     3.98533     3.16404
H     -0.51556     2.09561     1.83495
H     -2.06544     6.43330     2.78510
H     -2.39772     5.89505     1.11526
C      4.36227    -0.90820    -0.25368
C      5.62790    -0.14009    -0.42337
O      3.47804    -0.93124    -1.10963
O      4.24463    -1.54163     0.88401
H      3.39149    -2.05642     0.92140
H      5.97839    -0.23888    -1.44639
H      5.39321     0.90884    -0.24326
H      6.37345    -0.47847     0.28711
