 32
-917.0139256738726
C      2.00910    -0.31929    -2.16496
C      3.43148    -0.77822    -2.06414
O      1.49285     0.12104    -3.16199
O      1.35452    -0.44827    -0.99686
H      0.43508    -0.15523    -1.12380
H      3.46345    -1.80983    -1.71684
H      3.89893    -0.70132    -3.04016
H      3.96569    -0.16756    -1.34067
C     -1.89839     1.14661    -1.55049
C     -1.19277     1.69153    -2.74607
O     -1.38076     0.33285    -0.78563
O     -3.11269     1.59894    -1.38461
H     -3.54685     1.20169    -0.57867
H     -1.02782     0.88566    -3.45634
H     -1.77538     2.48732    -3.19660
H     -0.20700     2.03875    -2.45155
C      3.74454    -0.40960     2.02006
C      2.24589    -0.42123     2.02020
O      4.44993     0.30642     1.35670
O      4.25711    -1.33352     2.86663
H      5.21688    -1.26109     2.79381
H      1.89212    -1.27712     1.45042
H      1.86282    -0.49963     3.03597
H      1.87694     0.47581     1.53699
C     -3.81569    -0.20640     1.53119
C     -4.55842    -0.72896     2.72296
O     -4.31573     0.58229     0.74456
O     -2.58831    -0.67269     1.41627
H     -2.14948    -0.30511     0.61294
H     -5.46844    -1.21601     2.38228
H     -3.94127    -1.42201     3.28238
H     -4.85345     0.10967     3.34856
