 32
-917.018418569792
C      1.72798    -1.33957    -2.43885
C      2.88453    -2.14147    -2.97113
O      1.79745    -0.19166    -2.07195
O      0.59419    -2.05329    -2.42498
H     -0.12166    -1.49830    -2.05928
H      2.65460    -2.50110    -3.97266
H      3.77786    -1.52737    -2.99327
H      3.05035    -3.01384    -2.34117
C     -1.42723     0.66547    -1.79240
C     -1.12800     0.80188    -3.25247
O     -1.36206    -0.41492    -1.20888
O     -1.74487     1.78316    -1.20192
H     -1.88543     1.66645    -0.21605
H     -1.28999    -0.15309    -3.73894
H     -1.73966     1.58173    -3.69661
H     -0.07703     1.06960    -3.34721
C      1.66723     0.33092     2.42397
C      1.46015     0.57846     0.96415
O      0.84566     0.49897     3.29170
O      2.90411    -0.12861     2.70590
H      2.93299    -0.26049     3.66127
H      0.61519     1.24384     0.84385
H      2.34211     0.98961     0.48773
H      1.24201    -0.35960     0.46005
C     -2.11176     0.47714     2.01945
C     -2.38286     0.41506     3.48205
O     -2.04638     1.51776     1.38313
O     -1.93463    -0.70806     1.46364
H     -1.76885    -0.60706     0.50206
H     -2.88548     1.32136     3.80218
H     -2.97208    -0.46774     3.70999
H     -1.42417     0.33782     3.99237
