 72
-2063.3333827658907
C      5.39764    -2.06745    -0.93855
C      6.87859    -2.25957    -0.78359
O      4.91854    -1.55075    -1.93832
O      4.68748    -2.48705     0.08310
H      3.71873    -2.38278    -0.10185
H      7.24414    -2.88692    -1.59331
H      7.36516    -1.29064    -0.87437
H      7.10418    -2.70698     0.17725
C     -2.68525     3.47800    -1.02530
C     -1.95830     4.61780    -1.65338
O     -2.71523     2.34952    -1.51265
O     -3.29742     3.77642     0.09496
H     -3.82614     3.00819     0.43832
H     -2.18933     4.65088    -2.71306
H     -2.21032     5.54824    -1.15554
H     -0.88992     4.43059    -1.57761
C     -4.72573     0.59701     0.52357
C     -5.34053    -0.59530     1.18631
O     -4.57485     1.67278     1.07889
O     -4.35927     0.35783    -0.71936
H     -3.83830     1.11099    -1.07713
H     -6.33811    -0.75001     0.78029
H     -4.73849    -1.46858     0.96363
H     -5.39694    -0.43226     2.25497
C     -3.77477    -3.90215     2.82636
C     -5.18484    -4.39397     2.70178
O     -3.24037    -3.22936     1.95350
O     -3.17584    -4.25243     3.93845
H     -2.23552    -3.92139     3.94698
H     -5.83363    -3.55099     2.48518
H     -5.24707    -5.07643     1.85749
H     -5.49540    -4.88894     3.61391
C      0.12771     2.45929    -3.80595
C      1.52482     2.12290    -4.23717
O     -0.51307     3.40146    -4.20071
O     -0.33687     1.59157    -2.88802
H     -1.19312     1.91709    -2.56380
H      1.70981     2.56216    -5.21361
H      2.22156     2.54978    -3.51759
H      1.67821     1.04936    -4.26269
C     -0.13127    -2.72235     3.05132
C      1.31985    -2.36901     3.08895
O     -0.68911    -3.37767     3.91413
O     -0.75918    -2.24127     1.98836
H     -1.69278    -2.57459     1.95627
H      1.79879    -2.86944     3.92352
H      1.78249    -2.65340     2.14783
H      1.42212    -1.29176     3.18974
C      3.74422     1.74420    -0.50575
C      5.07037     1.88766    -1.18052
O      2.78453     2.44637    -0.77504
O      3.70042     0.78075     0.38699
H      2.80332     0.74682     0.79293
H      5.12430     2.84289    -1.69279
H      5.87279     1.79693    -0.45330
H      5.17680     1.08256    -1.90518
C      0.30264     1.61301     1.10893
C     -1.05826     1.41057     1.68384
O      1.25784     0.91357     1.40018
O      0.37156     2.59524     0.23512
H      1.27524     2.60725    -0.17470
H     -1.03473     0.65500     2.45672
H     -1.44582     2.34968     2.06800
H     -1.72272     1.07935     0.89068
C      1.65920    -1.44281    -1.30501
C      0.20476    -1.12447    -1.34951
O      2.13871    -2.22198    -0.49841
O      2.38179    -0.79277    -2.19804
H      3.33068    -1.07262    -2.13681
H     -0.33307    -1.78603    -0.68436
H      0.08558    -0.09349    -1.02603
H     -0.18083    -1.18967    -2.36276
