 40
-1146.2801556266318
C      0.27966     0.11870    -1.31847
C      0.98677     1.40788    -1.60340
O     -0.04138    -0.24940    -0.21111
O      0.05430    -0.60682    -2.42126
H     -0.43452    -1.41190    -2.16899
H      0.96293     1.63204    -2.66459
H      0.53157     2.20215    -1.02189
H      2.01727     1.32323    -1.26391
C     -1.12936    -3.65989    -0.99924
C      0.25843    -3.52893    -0.45922
O     -1.56313    -2.91719    -1.87825
O     -1.83615    -4.61530    -0.45955
H     -2.76790    -4.63752    -0.82123
H      0.55243    -4.42818     0.07193
H      0.93586    -3.31421    -1.28001
H      0.27760    -2.67000     0.20901
C      1.79631     2.09833     2.44071
C      0.97820     0.85476     2.57045
O      2.42188     2.57338     3.37709
O      1.78618     2.63118     1.23450
H      2.32891     3.46438     1.20895
H      1.00914     0.51269     3.59808
H     -0.04417     1.05318     2.26130
H      1.36092     0.09442     1.89668
C     -4.81297    -3.92739    -2.15930
C     -6.25136    -3.99811    -2.57165
O     -4.32363    -4.71051    -1.35976
O     -4.13919    -2.95063    -2.73130
H     -3.20556    -2.93834    -2.41658
H     -6.45272    -3.29119    -3.36789
H     -6.48045    -5.01226    -2.88664
H     -6.87271    -3.77652    -1.70713
C      3.82142     5.32878     2.11631
C      4.59493     6.60906     1.99247
O      3.21798     4.84716     1.16678
O      3.85179     4.78807     3.31117
H      3.31418     3.94917     3.33761
H      5.07785     6.85290     2.93155
H      5.33053     6.50084     1.19950
H      3.91345     7.40334     1.69740
