 48
-1375.5431386317389
C      0.61975     1.02200     2.38704
C      2.07611     0.87564     2.70000
O     -0.04670     1.99223     2.64023
O      0.12961    -0.06714     1.76535
H     -0.76764     0.14307     1.45245
H      2.26865    -0.09182     3.15197
H      2.64924     0.92395     1.77773
H      2.39787     1.67608     3.35619
C      5.39832     0.45236     0.44268
C      6.60387     1.33670     0.57655
O      5.17877    -0.46032     1.22543
O      4.61909     0.75131    -0.57287
H      3.85225     0.12019    -0.63564
H      6.64825     1.72355     1.59097
H      7.49633     0.73572     0.41897
H      6.56406     2.14565    -0.14335
C     -0.50766     0.51802    -2.20336
C      0.49236     0.78388    -3.28355
O     -1.08554    -0.54808    -2.08190
O     -0.67879     1.52401    -1.37016
H     -1.27541     1.23689    -0.64621
H      0.20126     0.26768    -4.19456
H      0.58565     1.85141    -3.45244
H      1.45349     0.38916    -2.95644
C     -3.23954     1.40913     0.95089
C     -3.10600     2.41784     2.04248
O     -2.30411     0.71734     0.55050
O     -4.44053     1.30331     0.44529
H     -4.44590     0.62258    -0.28167
H     -4.08484     2.78500     2.32809
H     -2.58250     1.97265     2.88294
H     -2.48077     3.24340     1.70412
C      2.30610    -1.78344     0.11879
C      1.06230    -2.60445     0.03769
O      2.58268    -0.90646    -0.68688
O      3.07540    -2.09001     1.14103
H      3.89510    -1.53160     1.14197
H      0.54330    -2.37815    -0.88487
H      1.32198    -3.66065     0.09268
H      0.43238    -2.36478     0.88890
C     -4.28519    -1.63010    -1.78282
C     -5.43943    -2.57661    -1.94719
O     -4.43043    -0.46103    -1.46361
O     -3.11670    -2.17028    -2.02136
H     -2.39369    -1.49344    -1.97398
H     -5.07817    -3.56785    -2.19435
H     -6.02030    -2.60328    -1.02765
H     -6.09562    -2.20756    -2.73297
