 48
-1375.5444190508495
C      0.28607     0.12221     2.43254
C     -1.08297     0.54347     2.87109
O      0.99216    -0.65393     3.02697
O      0.65031     0.70436     1.27674
H      1.55172     0.41271     1.05124
H     -1.82734     0.00931     2.28340
H     -1.21439     0.29068     3.91953
H     -1.22212     1.61040     2.71244
C      2.54326    -1.16176    -2.49257
C      2.24077    -1.15947    -3.95671
O      2.57512    -2.18001    -1.82265
O      2.76154     0.04117    -1.99145
H      2.95807    -0.02541    -1.02585
H      2.31199    -2.16736    -4.34900
H      1.22612    -0.79177    -4.09643
H      2.91891    -0.49001    -4.47884
C     -1.08491     0.72072    -1.25864
C     -0.36675     2.00869    -1.47523
O     -2.17214     0.65846    -0.68987
O     -0.47305    -0.33630    -1.72784
H     -0.97030    -1.17429    -1.50095
H     -1.01772     2.67965    -2.03285
H     -0.17220     2.45584    -0.50191
H      0.55789     1.83727    -2.01223
C     -2.78794     4.05203     0.57319
C     -3.55422     5.33954     0.70848
O     -1.80948     3.76158     1.21674
O     -3.31485     3.25200    -0.36578
H     -2.81360     2.41712    -0.38579
H     -3.57170     5.86227    -0.24626
H     -4.58541     5.12695     0.98513
H     -3.08600     5.95903     1.46448
C      3.55742    -1.23828     1.21084
C      4.09982    -1.26534     2.59876
O      3.26884    -0.18934     0.63006
O      3.39919    -2.40697     0.65530
H      3.06400    -2.32545    -0.28414
H      4.56333    -2.22473     2.79777
H      4.80283    -0.44798     2.73008
H      3.26318    -1.11048     3.27874
C     -2.65260    -2.62032    -0.27576
C     -3.17501    -3.94429     0.19726
O     -1.77701    -2.51791    -1.12243
O     -3.23225    -1.58177     0.29255
H     -2.85860    -0.74386    -0.06829
H     -2.36594    -4.66746     0.22298
H     -3.63706    -3.84132     1.17334
H     -3.92017    -4.29383    -0.51481
