 64
-1834.0569694718538
C     -1.40930    -0.41386    -2.72064
C     -0.02140    -0.25935    -3.24806
O     -2.24090     0.47664    -2.79460
O     -1.66351    -1.58503    -2.16141
H     -2.54210    -1.55901    -1.71604
H      0.65610    -0.22436    -2.39864
H      0.24469    -1.11186    -3.86697
H      0.04537     0.66840    -3.80327
C      3.89782     2.71053     0.50211
C      3.30318     3.85707     1.24541
O      3.25791     2.02080    -0.29210
O      5.16071     2.49255     0.77339
H      5.50864     1.70819     0.27819
H      2.75762     4.49529     0.55798
H      2.56832     3.46918     1.94554
H      4.07481     4.40942     1.76973
C      1.06910    -2.22735    -0.34002
C      0.09106    -3.30336     0.01932
O      0.82362    -1.04537    -0.36593
O      2.29132    -2.70548    -0.62819
H      2.87856    -1.95361    -0.80850
H      0.44858    -4.27529    -0.31162
H     -0.02601    -3.30243     1.10080
H     -0.87450    -3.07417    -0.41689
C      5.35371    -0.57898    -0.88312
C      5.82559    -1.94595    -1.26302
O      6.09059     0.31103    -0.51297
O      4.03885    -0.42726    -1.00809
H      3.74448     0.48262    -0.75363
H      5.76211    -2.04847    -2.34469
H      6.85445    -2.08207    -0.94716
H      5.18282    -2.70084    -0.81756
C     -4.69409    -0.26911    -0.77738
C     -5.93665    -0.20947     0.04746
O     -4.06076    -1.31005    -0.94823
O     -4.32821     0.87575    -1.29073
H     -3.53680     0.74607    -1.87889
H     -6.51457     0.67197    -0.20800
H     -6.50879    -1.11974    -0.10137
H     -5.63739    -0.16571     1.09381
C     -0.60553     0.01986     2.31228
C      0.63211     0.84352     2.12425
O     -0.62374    -1.09196     2.78541
O     -1.71469     0.65162     1.89402
H     -2.48545     0.08535     2.06619
H      1.44363     0.41082     2.69977
H      0.90629     0.83922     1.07327
H      0.43996     1.86623     2.42803
C     -0.20418     3.33186    -0.25657
C     -1.65709     3.35008    -0.61041
O      0.25553     3.75323     0.77570
O      0.55445     2.79151    -1.22572
H      1.46948     2.74298    -0.90509
H     -1.91916     4.33865    -0.98783
H     -1.87320     2.60332    -1.36684
H     -2.24497     3.15845     0.28270
C     -3.46791    -2.31595     2.36832
C     -3.01378    -3.04498     3.58869
O     -3.89161    -1.17567     2.36539
O     -3.34037    -3.02922     1.25019
H     -3.63729    -2.48210     0.50474
H     -3.65561    -2.78521     4.42555
H     -3.00654    -4.11451     3.40902
H     -2.00339    -2.70312     3.81277
