 40
-1146.279810330209
C      0.32671     0.27672    -1.23479
C      0.84868     1.64327    -1.55365
O      0.64235    -0.36794    -0.26038
O     -0.54513    -0.16738    -2.14847
H     -0.87831    -1.03727    -1.86511
H      0.88091     1.79262    -2.62859
H      0.18316     2.38473    -1.11377
H      1.82325     1.77435    -1.09985
C     -1.30292    -3.57202    -0.86430
C      0.06814    -3.41861    -0.29340
O     -1.86603    -2.67908    -1.49381
O     -1.85372    -4.73443    -0.62697
H     -2.77527    -4.79214    -1.00384
H      0.46372    -4.38477     0.00057
H      0.70599    -2.92614    -1.02012
H      0.01302    -2.75432     0.56565
C      2.02064     2.04257     2.45069
C      1.30359     0.74129     2.61273
O      2.80024     2.46942     3.29011
O      1.74648     2.67669     1.32812
H      2.26389     3.52377     1.25967
H      1.41115     0.39857     3.63517
H      0.25829     0.85659     2.34228
H      1.72334     0.01431     1.92279
C     -4.92471    -4.08391    -2.19672
C     -6.32618    -4.27212    -2.69054
O     -4.31922    -4.95690    -1.59555
O     -4.41604    -2.89838    -2.46871
H     -3.49902    -2.82405    -2.11851
H     -6.64998    -3.40507    -3.25413
H     -6.36690    -5.16782    -3.30436
H     -6.97885    -4.43332    -1.83610
C      3.94453     5.30365     1.96278
C      4.70803     6.58035     1.76293
O      3.13471     4.90242     1.13699
O      4.22132     4.67424     3.07920
H      3.68384     3.83784     3.16055
H      5.38284     6.75225     2.59327
H      5.25959     6.51820     0.82817
H      4.00164     7.40160     1.66993
