 40
-1146.2862995951016
C      1.39895    -2.68937    -0.21038
C      0.56468    -3.80522     0.33520
O      1.68372    -2.58903    -1.39297
O      1.77012    -1.80935     0.70091
H      2.30970    -1.09481     0.28866
H     -0.45178    -3.43523     0.46108
H      0.56196    -4.63441    -0.36339
H      0.94013    -4.11028     1.30756
C      3.26756     0.34904    -1.69571
C      3.91059     1.55806    -2.28783
O      3.13621     0.19361    -0.48200
O      2.83400    -0.51910    -2.57324
H      2.43526    -1.31971    -2.13547
H      4.78289     1.82855    -1.70040
H      4.16987     1.37625    -3.32453
H      3.19094     2.37296    -2.22158
C      0.99449     2.82617     0.13326
C      0.18006     3.93121     0.73763
O      1.13559     2.64892    -1.05440
O      1.54410     2.04134     1.06836
H      2.07495     1.35281     0.63342
H      0.10562     4.75474     0.03354
H     -0.81959     3.55416     0.94556
H      0.62740     4.25576     1.67311
C     -1.65197    -0.02846    -0.61939
C     -0.71937     0.16899    -1.76804
O     -2.04869    -1.13308    -0.27607
O     -1.97564     1.08491     0.00224
H     -2.61514     0.90798     0.74303
H     -0.97899     1.05033    -2.34173
H      0.27425     0.33652    -1.36551
H     -0.70402    -0.71694    -2.38905
C     -4.12149    -0.49345     2.27109
C     -5.09936    -0.67696     3.39549
O     -3.68630     0.60770     1.96594
O     -3.78648    -1.60590     1.65746
H     -3.13948    -1.42674     0.92317
H     -5.32224    -1.72835     3.53623
H     -4.67977    -0.24934     4.30248
H     -6.00750    -0.12513     3.16465
