 72
-2063.323990049053
C      6.91652    -2.09959    -0.33299
C      7.89935    -3.21194    -0.55670
O      6.78579    -1.56298     0.75718
O      6.22849    -1.76613    -1.40225
H      5.56839    -1.05302    -1.18770
H      7.85961    -3.55319    -1.58436
H      8.89569    -2.85333    -0.31084
H      7.66947    -4.02573     0.12637
C      0.02123     2.32783    -1.39619
C     -0.42915     1.03610    -1.98288
O     -0.15723     2.61551    -0.21245
O      0.61405     3.13648    -2.23561
H      0.86597     4.00382    -1.80796
H     -0.49505     0.28479    -1.20863
H     -1.42041     1.17044    -2.40613
H      0.25286     0.70551    -2.76149
C     -4.66629     0.12409    -2.16491
C     -4.86510     1.57161    -2.51363
O     -5.54855    -0.68544    -2.03036
O     -3.36779    -0.17467    -1.98762
H     -3.30882    -1.08119    -1.64363
H     -4.15809     1.87620    -3.28303
H     -5.88224     1.73174    -2.85547
H     -4.67844     2.18240    -1.63060
C     -3.21917    -3.53645    -0.06977
C     -4.67672    -3.83755    -0.12341
O     -2.69324    -2.65001    -0.74317
O     -2.54308    -4.27762     0.76393
H     -1.58276    -4.01102     0.78042
H     -5.10899    -3.41276    -1.02158
H     -4.83914    -4.91061    -0.06758
H     -5.13087    -3.36814     0.74809
C     -5.08680    -0.40241     1.51176
C     -6.57335    -0.23880     1.44825
O     -4.52483    -1.40837     1.87892
O     -4.43059     0.68180     1.08396
H     -3.47505     0.53529     1.18396
H     -7.03759    -0.86529     2.20391
H     -6.85370     0.80191     1.58119
H     -6.90418    -0.57089     0.46529
C      0.51285    -2.68053     0.11664
C      1.96625    -2.35221     0.21303
O     -0.03118    -3.51679     0.82002
O     -0.14811    -1.96205    -0.77273
H     -1.09991    -2.22700    -0.78740
H      2.05562    -1.43852     0.79784
H      2.50231    -3.14739     0.71575
H      2.38515    -2.15696    -0.76720
C     -0.73885    -0.09597     2.00907
C     -1.47666    -0.97935     2.96571
O      0.45483    -0.07723     1.86861
O     -1.55961     0.69156     1.27358
H     -1.01656     1.32476     0.75979
H     -0.81174    -1.75299     3.33522
H     -1.84974    -0.38620     3.80107
H     -2.33553    -1.42683     2.47191
C      1.70670     5.47188     0.05977
C      2.56356     6.56672     0.61871
O      1.37158     5.41009    -1.11219
O      1.36405     4.57072     0.96116
H      0.77367     3.89537     0.56252
H      2.82708     7.26510    -0.16557
H      2.02814     7.07673     1.41596
H      3.46054     6.13032     1.05206
C      4.41687     0.73016     0.23925
C      3.41823     1.82253     0.45594
O      4.45184     0.08082    -0.79684
O      5.22679     0.53149     1.25151
H      5.83133    -0.23840     1.07322
H      3.89415     2.69771     0.88546
H      2.95964     2.06406    -0.49475
H      2.65918     1.47472     1.15026
