 48
-1375.5399406709034
C      0.05659     0.15700     2.45148
C     -1.10725     0.90122     3.02629
O      0.61949    -0.75875     2.99938
O      0.40202     0.59234     1.22538
H      1.20417     0.11844     0.94016
H     -1.30110     1.81489     2.47488
H     -1.97990     0.25274     2.96446
H     -0.91729     1.11066     4.07692
C      1.63577    -1.55372    -2.30144
C      0.78567    -1.47121    -3.52692
O      1.94195    -2.61027    -1.76972
O      2.03201    -0.38263    -1.84022
H      2.46149    -0.49848    -0.95851
H      0.79649    -2.42412    -4.04458
H     -0.23116    -1.23750    -3.21822
H      1.13698    -0.67327    -4.17495
C      0.14536     3.50386    -0.86132
C      0.26208     2.25577    -1.66699
O     -0.75799     3.76100    -0.08738
O      1.13607     4.38087    -1.06997
H      0.96230     5.14465    -0.50498
H     -0.51049     2.25723    -2.43234
H      1.24125     2.16224    -2.12299
H      0.06166     1.40205    -1.03018
C     -3.29199     1.31267    -0.42267
C     -4.64914     0.73512    -0.18028
O     -2.54206     0.94655    -1.31530
O     -2.95521     2.24524     0.44829
H     -2.10854     2.68706     0.20717
H     -5.23427     1.39947     0.44583
H     -5.14428     0.55344    -1.13043
H     -4.51041    -0.22111     0.32271
C      3.07497    -1.76118     1.22067
C      3.60737    -1.81558     2.61286
O      2.88080    -0.70025     0.62411
O      2.81337    -2.92220     0.68304
H      2.49638    -2.82463    -0.25705
H      4.40073    -1.08255     2.72911
H      2.79445    -1.54242     3.28410
H      3.95416    -2.81637     2.84369
C     -1.66455    -1.92450     0.13821
C     -0.89627    -3.15508     0.51728
O     -2.61299    -1.50976     0.76013
O     -1.17404    -1.31846    -0.95013
H     -1.67529    -0.48710    -1.11088
H     -1.57292    -3.89126     0.94361
H     -0.36976    -3.56655    -0.33801
H     -0.16994    -2.87732     1.28187
