 48
-1375.551685894181
C     -4.60668    -2.99579     2.68617
C     -5.97426    -3.56156     2.93888
O     -3.85059    -2.70209     3.60079
O     -4.31198    -2.84866     1.41431
H     -3.39860    -2.46053     1.30478
H     -6.47072    -3.78209     2.00120
H     -5.87843    -4.46026     3.54292
H     -6.55077    -2.84194     3.51489
C      1.15826    -0.65128    -2.34983
C     -0.17020    -0.56236    -3.03543
O      1.33381    -1.26828    -1.31367
O      2.11253     0.01000    -2.97335
H      2.95064    -0.04447    -2.44977
H     -0.08675    -0.93313    -4.05527
H     -0.90257    -1.14071    -2.48614
H     -0.47225     0.48104    -3.07969
C     -1.38791     1.99283    -0.33491
C     -2.66764     1.58351     0.32543
O     -0.29299     1.62514     0.06931
O     -1.54767     2.76202    -1.38714
H     -0.66571     2.96662    -1.79385
H     -2.64172     1.89682     1.36660
H     -3.51560     2.03069    -0.18282
H     -2.74032     0.49906     0.31093
C      1.91695     2.99099    -1.89905
C      3.19207     3.41530    -2.54759
O      0.82703     3.10086    -2.43340
O      2.07874     2.46525    -0.70179
H      1.21182     2.11552    -0.37364
H      2.97889     4.01466    -3.42595
H      3.80490     3.97094    -1.84247
H      3.73805     2.52091    -2.84288
C      4.13528     0.08132    -0.20434
C      5.07537     0.83548     0.68478
O      4.25296     0.05734    -1.42011
O      3.17927    -0.53063     0.45972
H      2.48913    -0.88591    -0.15633
H      4.66056     1.83196     0.83327
H      5.14838     0.34457     1.64992
H      6.04788     0.92122     0.21205
C     -1.05779    -1.74450     2.01877
C      0.34309    -1.33213     1.71572
O     -1.91446    -1.81955     1.14349
O     -1.29889    -2.01110     3.28116
H     -2.25026    -2.26957     3.41256
H      0.33331    -0.30497     1.35649
H      0.97185    -1.42419     2.59306
H      0.72022    -1.93557     0.89896
