 32
-917.0161076635601
C      1.60412    -1.95579    -3.26885
C      2.75254    -2.88000    -3.56434
O      0.90932    -1.42600    -4.09966
O      1.44590    -1.78203    -1.94730
H      0.68393    -1.19913    -1.79004
H      2.88022    -2.96867    -4.63695
H      3.66167    -2.49498    -3.10658
H      2.55507    -3.85850    -3.13046
C     -1.11066     0.84756    -1.70358
C     -0.88253     1.00838    -3.17107
O     -0.78900    -0.17041    -1.09316
O     -1.67110     1.87617    -1.12193
H     -1.82553     1.70531    -0.14814
H     -1.30844     1.94329    -3.51747
H      0.18568     0.97161    -3.36821
H     -1.31601     0.16010    -3.69331
C      1.45166     0.72410     2.90006
C      1.32849     1.26693     1.50839
O      0.56337     0.68592     3.71468
O      2.68455     0.25307     3.17043
H      2.65574    -0.08896     4.07230
H      0.90564     0.49529     0.86780
H      0.62908     2.09602     1.51959
H      2.28600     1.57120     1.09922
C     -2.12355     0.39724     1.99988
C     -2.62570     0.22670     3.39036
O     -2.06554     1.47305     1.42312
O     -1.73089    -0.73290     1.43925
H     -1.41947    -0.56249     0.52516
H     -1.76437     0.21745     4.05629
H     -3.26939     1.05906     3.65368
H     -3.14593    -0.72204     3.48037
