 48
-1375.5427541605623
C     -0.59546    -0.52982    -2.18444
C     -1.76626    -0.09497    -2.99494
O     -0.67858    -0.95163    -1.04357
O      0.55642    -0.39740    -2.81844
H      1.30316    -0.60004    -2.22246
H     -1.57165    -0.26029    -4.05137
H     -2.65886    -0.61334    -2.66971
H     -1.91212     0.97000    -2.81957
C      3.88159    -2.84303     1.23651
C      4.18124    -4.09921     1.99864
O      4.10821    -1.73298     1.69596
O      3.36309    -3.04954     0.04441
H      3.19234    -2.19567    -0.41344
H      3.95000    -4.97049     1.39735
H      5.23004    -4.09795     2.28471
H      3.59326    -4.10512     2.91347
C     -1.66579     2.83193    -0.41394
C     -2.69486     3.80524    -0.91826
O     -0.76455     2.40604    -1.09820
O     -1.88293     2.46301     0.84645
H     -1.16213     1.85636     1.12787
H     -3.39101     3.25865    -1.55366
H     -3.23613     4.26345    -0.09614
H     -2.20938     4.56307    -1.52905
C      0.53607    -0.22501     1.95064
C      1.13690    -0.38371     3.30891
O      0.06029     0.81556     1.54282
O      0.60616    -1.31510     1.21619
H      0.13585    -1.16469     0.36087
H      0.91540    -1.36846     3.71101
H      2.21829    -0.28985     3.22054
H      0.77268     0.39234     3.97507
C      2.85934     0.39110    -0.59872
C      2.32659     1.63774    -1.21481
O      2.81188    -0.70019    -1.16546
O      3.36644     0.54292     0.59670
H      3.67929    -0.32094     0.97625
H      1.26339     1.72913    -0.98287
H      2.84324     2.50757    -0.82470
H      2.42481     1.57994    -2.29350
C     -4.77984     0.31119    -0.26320
C     -3.96160    -0.48312     0.70877
O     -4.46461     0.58974    -1.39271
O     -5.95269     0.71432     0.27103
H     -6.42137     1.20180    -0.41755
H     -3.58790     0.18278     1.48363
H     -4.57293    -1.24886     1.18477
H     -3.12968    -0.93399     0.18171
