 80
-2292.593737093569
C      1.68964    -0.51163    -2.22050
C      2.10493    -1.93817    -2.40370
O      1.59164     0.27249    -3.14821
O      1.43215    -0.19235    -0.96578
H      1.19928     0.76808    -0.88698
H      3.06470    -1.96630    -2.91556
H      2.16450    -2.44154    -1.44759
H      1.37694    -2.45122    -3.02900
C     -3.15366     3.56813     0.02514
C     -3.60006     4.12696     1.33109
O     -2.75366     2.41536    -0.12162
O     -3.21607     4.40796    -0.97233
H     -2.95977     3.95248    -1.81420
H     -3.34073     3.43600     2.12345
H     -3.10407     5.07872     1.48580
H     -4.67652     4.28987     1.29599
C     -0.03665    -7.08383    -0.82571
C      0.30842    -8.52284    -1.07533
O     -0.78608    -6.72759     0.07159
O      0.55873    -6.24755    -1.65024
H      0.28670    -5.31163    -1.46837
H      0.06400    -8.78683    -2.10152
H      1.37954    -8.66319    -0.94556
H     -0.23639    -9.15415    -0.38406
C      0.32076     4.65157     2.26421
C      1.23588     5.81111     2.55488
O     -0.64008     4.73892     1.53376
O      0.68457     3.52726     2.87212
H     -0.04913     2.87373     2.79913
H      2.09515     5.49636     3.13815
H      1.56412     6.25247     1.61591
H      0.68176     6.57542     3.09676
C     -1.07671    -3.43052    -0.37124
C     -1.55957    -2.02329    -0.27456
O     -0.17912    -3.76948    -1.13340
O     -1.67214    -4.25743     0.45403
H     -1.35557    -5.18740     0.31346
H     -1.51701    -1.55909    -1.25229
H     -2.56165    -1.98873     0.14010
H     -0.89622    -1.48079     0.39688
C     -1.65818     0.72199     2.68679
C     -1.35764    -0.42569     3.59308
O     -1.34077     1.87403     2.92146
O     -2.32058     0.37601     1.59587
H     -2.45717     1.16292     1.02872
H     -2.10800    -1.20111     3.47788
H     -0.38856    -0.84791     3.32996
H     -1.31282    -0.08256     4.62209
C      3.27765     0.40152     1.74771
C      3.66627     1.83140     1.58119
O      3.99331    -0.53014     1.41471
O      2.08672     0.23887     2.28829
H      1.83203    -0.71121     2.25626
H      3.21796     2.42925     2.36651
H      4.74931     1.92349     1.57707
H      3.28068     2.17841     0.62454
C     -2.06803     1.92944    -3.27436
C     -1.74900     1.32362    -4.60181
O     -2.45400     3.07558    -3.12995
O     -1.88013     1.10514    -2.25981
H     -2.14363     1.54809    -1.42278
H     -2.24872     0.36336    -4.69971
H     -2.05059     1.99296    -5.40059
H     -0.67650     1.14842    -4.65814
C      0.77562     3.18414    -1.72399
C      0.40943     4.62082    -1.54657
O      0.87269     2.38803    -0.80606
O      0.98678     2.85747    -2.98097
H      1.25119     1.90716    -3.05058
H      1.32278     5.21612    -1.52148
H     -0.20276     4.94832    -2.38142
H     -0.11470     4.73408    -0.60649
C      2.15216    -3.24840     1.69145
C      1.74407    -4.68846     1.74117
O      1.44840    -2.35090     2.12969
O      3.30999    -3.03920     1.10914
H      3.58222    -2.08520     1.20986
H      1.49195    -5.01341     0.73596
H      2.55996    -5.31037     2.09669
H      0.86978    -4.79569     2.37091
