 72
-2063.330066766304
C      1.89026     2.93382    -2.66400
C      3.26483     2.46081    -3.00505
O      1.68918     3.96349    -2.03696
O      0.92688     2.14805    -3.09217
H      0.04736     2.49498    -2.78850
H      3.22846     1.42925    -3.33528
H      3.66500     3.09599    -3.79545
H      3.89388     2.56683    -2.12638
C      0.92810     3.44561     1.48697
C      1.46375     4.83976     1.45527
O      1.62037     2.46154     1.71082
O     -0.36098     3.35711     1.25046
H     -0.67008     2.41921     1.37037
H      1.40064     5.21094     0.43414
H      0.85895     5.48532     2.08699
H      2.49674     4.85668     1.78335
C     -0.82034     0.09430     2.52232
C     -1.74421    -0.86463     3.18897
O     -1.17082     0.90484     1.67921
O      0.43325     0.00101     2.92655
H      1.01902     0.49521     2.32787
H     -2.74960    -0.73635     2.81017
H     -1.39473    -1.87226     2.97786
H     -1.70341    -0.70947     4.26543
C     -3.10012    -1.42825    -0.67053
C     -2.94787    -0.01686    -1.13578
O     -2.73561    -2.39371    -1.32490
O     -3.67209    -1.53068     0.51165
H     -3.74770    -2.48386     0.76817
H     -2.83083     0.63425    -0.27939
H     -2.09053     0.05996    -1.79260
H     -3.84389     0.26768    -1.68747
C      1.17513    -1.04866    -2.26217
C      0.23288    -1.34131    -3.39118
O      2.37790    -0.99735    -2.36297
O      0.53786    -0.83929    -1.10535
H      1.19580    -0.69713    -0.40724
H      0.77157    -1.85899    -4.18139
H     -0.60725    -1.93352    -3.03940
H     -0.14351    -0.39555    -3.78000
C     -2.75792    -4.83528     0.85857
C     -2.42146    -6.08126     1.60852
O     -3.71505    -4.13213     1.11615
O     -1.89828    -4.54733    -0.11708
H     -2.22394    -3.75643    -0.63296
H     -3.22730    -6.32242     2.29232
H     -2.25049    -6.90009     0.91365
H     -1.50209    -5.90528     2.16224
C      3.52118     0.17072     0.43901
C      4.62676    -0.62394    -0.17771
O      2.48116    -0.31934     0.85245
O      3.75633     1.47035     0.49051
H      2.99916     1.91075     0.93128
H      4.30546    -0.92170    -1.17557
H      5.53588    -0.03387    -0.23461
H      4.78479    -1.52942     0.40303
C      0.80340    -3.64041     1.92556
C      2.12380    -3.23512     2.49931
O     -0.23537    -3.66432     2.54736
O      0.88989    -3.96464     0.62955
H      0.00084    -4.19374     0.31329
H      2.11792    -3.40220     3.57162
H      2.92964    -3.77839     2.01558
H      2.26097    -2.17116     2.30846
C     -1.54357     4.20134    -1.66515
C     -2.86979     4.58356    -1.08510
O     -1.33519     3.12392    -2.19839
O     -0.62313     5.13521    -1.53843
H      0.25362     4.76588    -1.81042
H     -2.75378     4.71602    -0.01177
H     -3.20272     5.52714    -1.51155
H     -3.58852     3.79687    -1.28326
