 56
-1604.8041735197037
C      1.38949    -0.44004    -2.41815
C      2.15693    -1.55106    -3.05396
O      1.76806     0.72012    -2.41580
O      0.25913    -0.82458    -1.84994
H     -0.28919    -0.04463    -1.62278
H      2.27943    -1.33410    -4.11290
H      3.13860    -1.59937    -2.59168
H      1.65294    -2.49719    -2.90462
C     -4.90367     0.53670    -0.20881
C     -3.97766    -0.58254    -0.55010
O     -4.70844     1.72057    -0.39751
O     -6.04796     0.11400     0.34496
H     -6.58499     0.89662     0.52198
H     -4.40270    -1.16872    -1.36339
H     -3.01640    -0.18289    -0.84893
H     -3.84519    -1.23624     0.30617
C     -1.96014     1.80261     2.11055
C     -2.68350     3.01187     2.61598
O     -2.52658     0.74069     1.91584
O     -0.68039     1.99077     1.86141
H      0.38457    -3.15348     0.17402
H     -1.99337     3.73024     3.04396
H     -3.19731     3.46738     1.77143
H     -3.43244     2.70689     3.34094
C      4.10638    -3.52893    -0.17629
C      4.80264    -4.86253    -0.05796
O      3.03478    -3.38636    -0.71776
O      4.79822    -2.53956     0.39400
H      4.32692    -1.69202     0.25237
H      5.76778    -4.74665     0.42247
H      4.17623    -5.54040     0.51953
H      4.92128    -5.29454    -1.04964
C     -1.32461     2.49922    -1.24417
C     -0.11302     3.35738    -1.37125
O     -1.35161     1.29474    -1.42930
O     -2.39835     3.18075    -0.87754
H     -3.17446     2.58864    -0.79051
H      0.61371     2.86207    -2.00400
H     -0.37292     4.33933    -1.76104
H      0.32118     3.47688    -0.37940
C     -0.15627    -1.44301     1.30326
C      0.61792    -2.70683     1.13490
O      0.37324    -0.37203     1.55391
O     -1.45594    -1.58494     1.15988
H     -1.92200    -0.73451     1.35523
H     -0.24561     1.12052     1.66333
H      1.67285    -2.48213     1.17806
H      0.34229    -3.41146     1.91781
C      3.10592     0.74174     0.54735
C      3.36535     1.00152     1.99699
O      3.46081    -0.26448    -0.03860
O      2.43876     1.71429    -0.04662
H      2.20304     1.44064    -0.96592
H      3.84925     1.96731     2.12085
H      2.41333     1.02825     2.52179
H      3.98658     0.21265     2.40482
