 40
-1146.2871956900328
C      1.82379    -1.56324     0.23733
C      2.55378    -2.53602     1.10929
O      2.35317    -0.71916    -0.44268
O      0.49354    -1.71726     0.31920
H      0.06046    -1.12031    -0.30987
H      2.57802    -2.14165     2.12438
H      2.05398    -3.50040     1.12127
H      3.57369    -2.63253     0.75246
C     -1.19109     0.67596    -2.09687
C      0.05277     1.50285    -2.10151
O     -1.45755    -0.10292    -1.18111
O     -1.97152     0.85938    -3.12951
H     -2.79895     0.30846    -3.06437
H     -0.04315     2.26860    -1.33451
H      0.89513     0.87209    -1.83293
H      0.19486     1.96573    -3.07293
C      3.95796     1.35413     1.46953
C      5.26684     1.23795     0.75206
O      3.13340     2.22021     1.22825
O      3.77919     0.41390     2.37835
H      2.86072     0.46412     2.74171
H      5.48893     2.16804     0.24270
H      6.05651     0.97334     1.44930
H      5.17170     0.43824     0.01916
C     -4.64779    -1.05590    -1.94489
C     -6.02391    -1.63853    -1.82448
O     -4.22275    -0.55261    -2.97128
O     -3.94699    -1.14180    -0.82985
H     -3.04386    -0.76476    -0.95157
H     -6.53996    -1.55536    -2.77293
H     -5.95129    -2.68099    -1.52403
H     -6.57341    -1.10925    -1.04951
C      0.34143     0.82681     2.39079
C     -1.09598     0.43499     2.53858
O      1.21807     0.42103     3.13616
O      0.55989     1.63502     1.37636
H      1.51985     1.89159     1.32378
H     -1.14983    -0.62972     2.74361
H     -1.52329     0.97251     3.38394
H     -1.63765     0.67436     1.63094
