 72
-2063.327193963275
C      4.93649     0.65975     0.88825
C      5.97693     1.68355     1.22832
O      4.00145     0.87769     0.13528
O      5.13022    -0.49249     1.49514
H      4.31516    -1.04564     1.42779
H      5.64686     2.19948     2.12984
H      6.92934     1.20289     1.43025
H      6.06787     2.40476     0.42297
C      0.98416     3.43138    -0.78320
C      2.19033     4.11142    -0.22342
O     -0.14801     3.61871    -0.35205
O      1.24547     2.60801    -1.76634
H      0.41409     2.22847    -2.13324
H      2.52132     4.87624    -0.92448
H      1.93652     4.56587     0.72728
H      2.98263     3.37782    -0.10464
C     -2.38541     2.27993    -2.36578
C     -3.56727     1.57245    -2.94087
O     -1.23069     2.02290    -2.65338
O     -2.71194     3.22735    -1.50232
H     -1.89328     3.58748    -1.12020
H     -4.25555     2.30114    -3.36489
H     -3.23573     0.87535    -3.69934
H     -4.07757     1.04140    -2.14432
C     -0.78342    -1.77626    -2.60794
C      0.22160    -0.69095    -2.42107
O     -0.73242    -2.83544    -2.00048
O     -1.74926    -1.49050    -3.45482
H     -2.32293    -2.28670    -3.61172
H      1.21003    -1.11997    -2.30085
H      0.18531     0.01651    -3.23955
H     -0.02144    -0.17653    -1.49719
C      2.63673     0.19311     4.11815
C      3.81066    -0.45413     4.78000
O      1.49388    -0.17501     4.24527
O      2.98861     1.22282     3.33942
H      2.17237     1.61851     2.98106
H      4.53285     0.29277     5.10020
H      3.46997    -1.04374     5.62441
H      4.29222    -1.11528     4.06059
C     -3.03539    -4.74915    -3.36047
C     -3.88033    -5.93862    -3.71271
O     -3.26150    -3.62722    -3.79480
O     -2.04816    -5.02520    -2.54175
H     -1.51805    -4.20758    -2.33696
H     -4.30336    -6.36066    -2.80407
H     -4.66981    -5.63961    -4.39142
H     -3.25747    -6.70280    -4.17150
C     -0.56681     1.74320     2.57304
C     -1.32619     1.04446     3.64945
O      0.52620     2.25161     2.67053
O     -1.24633     1.78554     1.40569
H     -0.83803     2.45556     0.81724
H     -1.85005     0.19479     3.22415
H     -0.64907     0.73204     4.43551
H     -2.06519     1.73849     4.05093
C     -3.33200    -1.08225     0.35532
C     -4.09070    -1.94584    -0.60640
O     -3.20249    -1.30823     1.52890
O     -2.77651    -0.00262    -0.24380
H     -2.31795     0.52229     0.43493
H     -3.38832    -2.50451    -1.21806
H     -4.70708    -2.64973    -0.05987
H     -4.69951    -1.34458    -1.27259
C      1.72683    -1.33815     1.12812
C      0.43252    -2.03091     1.39610
O      2.79974    -1.74156     1.53317
O      1.59436    -0.24840     0.38757
H      2.47425     0.18098     0.25373
H     -0.38688    -1.35596     1.17766
H      0.35276    -2.90819     0.75656
H      0.39417    -2.34859     2.43385
