 72
-2063.33176741366
C      1.81972    -3.55732     2.56341
C      3.03565    -2.75436     2.24145
O      1.44594    -4.50052     1.88107
O      1.18863    -3.15702     3.64317
H      0.36500    -3.69488     3.78796
H      3.74336    -2.82095     3.06669
H      3.47482    -3.12405     1.32507
H      2.74398    -1.71439     2.12581
C     -0.72110     3.93348     1.07308
C     -0.63855     2.86327     2.10783
O      0.11665     4.12086     0.21006
O     -1.81022     4.67611     1.17614
H     -1.85052     5.31497     0.42977
H     -1.60933     2.39177     2.22314
H      0.09221     2.12373     1.80795
H     -0.35866     3.31185     3.06107
C     -1.51878     6.35140    -2.07593
C     -1.47711     7.55551    -2.96670
O     -2.08383     6.32900    -0.99721
O     -0.87891     5.31427    -2.58395
H     -0.97818     4.54323    -1.99271
H     -1.95292     7.32099    -3.91682
H     -1.98943     8.38051    -2.48718
H     -0.44285     7.82171    -3.17246
C     -1.41333    -5.47910     3.20161
C     -2.70311    -6.20370     3.44995
O     -1.07546    -4.51357     3.87152
O     -0.70123    -5.96244     2.20970
H      0.12463    -5.42525     2.07444
H     -2.73136    -6.53370     4.48535
H     -3.52728    -5.50876     3.30684
H     -2.79784    -7.04678     2.77559
C     -3.12474     2.77516    -1.05298
C     -4.35196     3.60121    -1.28315
O     -2.08415     2.92421    -1.65504
O     -3.28819     1.88060    -0.08122
H     -2.46666     1.37800     0.05455
H     -4.19536     4.57435    -0.81936
H     -4.49142     3.75582    -2.34967
H     -5.22525     3.12658    -0.84822
C      1.87641    -4.27757    -1.65986
C      2.29201    -5.69437    -1.41472
O      0.76400    -3.97090    -2.05730
O      2.80843    -3.38990    -1.37075
H      2.54787    -2.49615    -1.70895
H      3.26794    -5.87980    -1.85637
H      2.36818    -5.84700    -0.34064
H      1.54831    -6.36680    -1.82651
C      2.68258     1.88384    -0.21953
C      3.97093     1.26297    -0.65617
O      1.83593     1.28177     0.41971
O      2.54221     3.13505    -0.59591
H      1.67270     3.47551    -0.29879
H      3.77365     0.58455    -1.48571
H      4.67109     2.03138    -0.96749
H      4.38205     0.67216     0.15850
C     -0.58103    -0.91796     0.65812
C     -1.33293    -2.19869     0.83971
O     -1.10082     0.16999     0.52393
O      0.73446    -1.09509     0.65360
H      1.17302    -0.22697     0.51798
H     -0.93284    -2.74251     1.68944
H     -2.38778    -1.99829     0.99579
H     -1.21253    -2.81417    -0.04933
C      0.92481    -0.69594    -2.54070
C      0.54998     0.73866    -2.71048
O      2.08217    -1.07293    -2.43564
O     -0.10677    -1.50675    -2.48624
H      0.19401    -2.44106    -2.34288
H      1.41831     1.32034    -2.99261
H     -0.24481     0.85398    -3.44056
H      0.17014     1.10454    -1.75921
