 64
-1834.0609584981207
C      1.57991    -0.08676    -0.38736
C      0.36105     0.10875    -1.22537
O      1.55077    -0.72809     0.65250
O      2.66697     0.48159    -0.85534
H      3.41921     0.28503    -0.25508
H      0.50090     0.87946    -1.97416
H      0.14273    -0.83741    -1.71589
H     -0.47630     0.33787    -0.57003
C      3.87946     2.72997     2.15092
C      5.13178     3.36333     1.64784
O      3.81541     2.01079     3.13424
O      2.82255     2.99491     1.40714
H      2.05174     2.53517     1.77364
H      5.83402     3.50394     2.46260
H      5.57511     2.69006     0.91539
H      4.90435     4.30399     1.15852
C     -4.49268    -0.54106    -2.08793
C     -5.45425    -1.53929    -2.63098
O     -3.89936     0.28961    -2.75085
O     -4.32099    -0.63215    -0.76963
H     -3.70442     0.06163    -0.48884
H     -4.88684    -2.27261    -3.20283
H     -5.98766    -2.02378    -1.82171
H     -6.14128    -1.04391    -3.31243
C      4.49308    -0.90199     1.71543
C      4.62755    -2.37008     1.46880
O      4.64626    -0.05685     0.84746
O      4.15961    -0.60879     2.95669
H      4.04274     0.36328     3.05456
H      4.82388    -2.89248     2.39824
H      3.68236    -2.72350     1.05681
H      5.40855    -2.55984     0.73844
C     -1.00089    -3.00294    -0.57222
C     -2.31866    -3.72342    -0.53766
O     -0.23307    -3.04012    -1.50522
O     -0.77872    -2.30014     0.54404
H      0.08679    -1.84694     0.49502
H     -3.08151    -3.06887    -0.12757
H     -2.57442    -4.03029    -1.54657
H     -2.23271    -4.60183     0.10468
C     -0.10708     1.03673     2.80660
C      0.77289     0.47704     3.86976
O      0.17387     2.04463     2.15764
O     -1.21101     0.36540     2.61958
H     -1.73443     0.73218     1.86739
H      1.58931     1.16125     4.06656
H      0.19640     0.28173     4.77203
H      1.17462    -0.47120     3.51645
C     -2.54167     2.53201     0.22974
C     -3.53135     3.15924    -0.69661
O     -2.60647     1.34692     0.55398
O     -1.60997     3.33801     0.66545
H     -0.95666     2.86317     1.24153
H     -3.58237     2.56994    -1.60917
H     -4.51228     3.12468    -0.22749
H     -3.25448     4.18508    -0.91414
C     -1.70722    -1.88691    -4.15336
C     -0.45362    -2.50941    -4.68227
O     -2.74004    -2.48634    -3.95480
O     -1.55479    -0.58306    -3.89027
H     -2.38859    -0.23275    -3.52420
H      0.13783    -1.77826    -5.22556
H      0.12792    -2.87532    -3.83718
H     -0.71242    -3.35222    -5.31597
