 48
-1375.5440347634194
C      0.22797     1.72789     2.92195
C      0.15190     3.17974     3.30010
O     -0.22086     0.82618     3.58380
O      0.83743     1.54251     1.73829
H      0.89914     0.58740     1.56132
H      1.06037     3.70049     3.00771
H     -0.68692     3.63501     2.77640
H     -0.01246     3.26362     4.36945
C      2.26626    -1.62060    -2.09699
C      2.17061    -1.39518    -3.57476
O      2.37150    -2.73081    -1.60248
O      2.21576    -0.51069    -1.38695
H      2.02592    -0.72786    -0.44648
H      2.58870    -2.24282    -4.10643
H      1.11525    -1.29647    -3.82698
H      2.67546    -0.47333    -3.84771
C      0.08081     3.72355    -1.55194
C      0.99093     2.57486    -1.27184
O     -0.98638     3.93303    -1.01318
O      0.56141     4.56246    -2.48431
H     -0.08945     5.26775    -2.59383
H      1.50203     2.24368    -2.16993
H      1.73284     2.87508    -0.53637
H      0.41833     1.75808    -0.84950
C     -2.29254     0.97639     0.56025
C     -3.12501     0.13475     1.46979
O     -1.58401     0.55432    -0.33391
O     -2.37796     2.27060     0.84415
H     -1.85585     2.78671     0.19742
H     -4.13944     0.52897     1.50736
H     -3.11943    -0.89169     1.12412
H     -2.70142     0.18984     2.47140
C      1.02019    -2.28526     1.42350
C      0.22190    -2.55185     2.65263
O      1.36270    -1.16264     1.06486
O      1.33580    -3.36425     0.74688
H      1.78910    -3.13158    -0.10335
H      0.72058    -3.31360     3.24952
H      0.10568    -1.62911     3.20852
H     -0.74942    -2.93692     2.34919
C     -1.34811    -2.81483    -0.89153
C     -1.16490    -4.09498    -1.64664
O     -1.87736    -2.72641     0.19084
O     -0.82063    -1.76941    -1.53163
H     -1.02764    -0.94921    -1.03977
H     -1.79745    -4.86397    -1.21660
H     -1.39258    -3.95865    -2.70097
H     -0.12289    -4.40032    -1.56059
