 40
-1146.2805986761925
C      1.43004    -0.17096    -1.44257
C      0.98336     1.03627    -2.20094
O      0.71707    -1.15471    -1.27015
O      2.65074    -0.08696    -0.97883
H      2.89200    -0.87663    -0.42605
H      0.04379     0.82938    -2.69657
H      0.85319     1.85689    -1.50124
H      1.73534     1.32556    -2.93119
C      2.44687    -2.86927     1.05729
C      2.56215    -3.53877     2.38960
O      3.26715    -2.07151     0.63329
O      1.36132    -3.21613     0.39209
H      1.20509    -2.58141    -0.33746
H      2.19346    -4.55827     2.32934
H      3.58943    -3.51273     2.73593
H      1.93313    -2.98957     3.08920
C     -2.51591     2.69771    -1.69087
C     -1.76129     3.21614    -0.50301
O     -2.14872     2.72668    -2.83614
O     -3.71068     2.15414    -1.34699
H     -4.09848     1.82780    -2.16717
H     -0.91817     3.80491    -0.84551
H     -2.40928     3.82278     0.12772
H     -1.37686     2.39169     0.09465
C     -2.47911    -0.71823     0.03166
C     -3.96192    -0.87005     0.15717
O     -1.71785    -0.66548     0.97563
O     -2.07011    -0.64188    -1.22546
H     -1.09569    -0.67449    -1.24315
H     -4.46808    -0.08882    -0.40144
H     -4.26133    -1.82900    -0.26343
H     -4.24327    -0.82584     1.20336
C      1.21419     0.88696     1.70916
C      2.53583     1.20642     2.33903
O      0.60541     1.62909     0.97667
O      0.79506    -0.34341     2.01264
H     -0.09020    -0.48280     1.61667
H      2.55538     0.89218     3.37971
H      3.31542     0.66212     1.80706
H      2.73071     2.27081     2.26028
