 64
-1834.0637316737973
C      0.82217     0.86049    -0.59950
C     -0.17341     1.74808    -1.27312
O      0.53784     0.05250     0.26137
O      2.05489     1.04204    -1.02268
H      2.68300     0.41176    -0.58915
H     -0.02985     2.76902    -0.92922
H     -0.03781     1.70818    -2.34970
H     -1.17431     1.42216    -1.01997
C      3.22072     2.67982     1.47702
C      4.49650     3.01776     0.78413
O      3.08293     1.74679     2.24195
O      2.21770     3.49116     1.15379
H      1.40663     3.16273     1.57348
H      4.60377     2.32586    -0.05070
H      4.47955     4.03537     0.41113
H      5.33276     2.85929     1.45827
C     -3.71592    -1.35806    -1.02457
C     -3.92460    -2.79760    -1.35778
O     -3.30314    -0.51687    -1.80118
O     -4.05931    -1.06633     0.22637
H     -3.84416    -0.13767     0.39311
H     -3.87419    -3.39688    -0.45503
H     -4.91359    -2.91469    -1.80387
H     -3.18395    -3.12443    -2.07626
C      3.76542    -1.39657     0.96123
C      4.18546    -2.82447     0.87068
O      3.88998    -0.58763     0.05625
O      3.23122    -1.07382     2.13065
H      3.03351    -0.12052     2.13851
H      3.33904    -3.40021     0.50035
H      5.00783    -2.91769     0.16781
H      4.46123    -3.19128     1.85454
C      0.08622    -3.24829    -0.35868
C     -0.57739    -4.58831    -0.46883
O      1.28235    -3.07606    -0.42799
O     -0.77837    -2.24623    -0.20051
H     -0.26617    -1.41978    -0.08044
H      0.15541    -5.36573    -0.27362
H     -1.40804    -4.66593     0.22813
H     -0.96401    -4.70658    -1.47976
C     -0.66755     1.59495     2.73902
C      0.33256     1.07074     3.71172
O     -0.41061     2.47347     1.91586
O     -1.85109     1.04508     2.83844
H     -2.42941     1.31730     2.08895
H      1.12095     1.79804     3.85779
H     -0.15380     0.80611     4.64648
H      0.78179     0.16993     3.29155
C     -3.21077     2.71840     0.04654
C     -4.18746     3.07697    -1.02326
O     -3.32762     1.70716     0.73010
O     -2.21213     3.55832     0.18857
H     -1.51388     3.17935     0.78106
H     -4.17990     2.28761    -1.77192
H     -5.18786     3.12104    -0.59929
H     -3.92689     4.02850    -1.47310
C     -0.57470    -2.13462    -3.53826
C      0.84373    -2.17984    -4.03208
O     -1.24027    -3.11919    -3.31867
O     -1.00882    -0.88310    -3.35497
H     -1.89278    -0.88870    -2.94353
H      1.21751    -1.18015    -4.22720
H      1.45714    -2.66397    -3.27429
H      0.88588    -2.78480    -4.93559
