 64
-1834.0655230919244
C     -3.45071    -0.09414    -0.87157
C     -3.55885     0.91210    -1.97643
O     -3.55064    -1.29263    -1.07651
O     -3.25324     0.43351     0.32044
H     -3.08455    -0.27800     0.99240
H     -4.54457     0.81711    -2.42975
H     -3.41075     1.91399    -1.59521
H     -2.81378     0.68720    -2.73566
C      1.80892     3.48847     0.25045
C      1.34692     4.54182     1.20306
O      1.03771     2.87429    -0.48551
O      3.09675     3.28088     0.27144
H      3.35401     2.51791    -0.31175
H      0.97081     4.06033     2.10297
H      2.16146     5.20981     1.46402
H      0.51671     5.08938     0.76995
C     -0.16970    -2.28438    -2.60056
C     -1.31394    -3.15310    -2.99119
O      0.87106    -2.69027    -2.11938
O     -0.37457    -0.99759    -2.84788
H      0.39204    -0.47719    -2.54592
H     -1.04648    -3.70788    -3.88892
H     -1.51289    -3.86163    -2.19328
H     -2.18618    -2.53967    -3.17181
C      3.07260     0.52208    -1.88151
C      3.58639    -0.64241    -2.65044
O      3.79570     1.26272    -1.25248
O      1.75222     0.70142    -1.96079
H      1.48322     1.49060    -1.43343
H      2.76888    -1.25321    -3.00953
H      4.18289    -0.27309    -3.48363
H      4.23399    -1.22327    -1.99995
C     -2.14922    -2.58268     1.66975
C     -1.31264    -3.42160     2.57820
O     -2.64624    -1.51636     1.99145
O     -2.30736    -3.11683     0.46782
H     -2.85071    -2.50824    -0.08273
H     -0.59335    -3.97455     1.98503
H     -0.81266    -2.78527     3.29871
H     -1.96819    -4.12256     3.09672
C      0.79810     0.02709     2.32015
C     -0.21853     1.05967     2.68729
O      0.86596    -1.06824     2.82844
O      1.62490     0.44154     1.35310
H      2.16041    -0.31944     1.05443
H     -1.12447     0.56939     3.02431
H      0.16340     1.68400     3.49393
H     -0.43731     1.70376     1.84623
C     -2.28980     3.69292     0.70271
C     -3.78190     3.78822     0.62410
O     -1.64788     3.74554     1.72104
O     -1.72773     3.53626    -0.50746
H     -0.76664     3.40566    -0.40285
H     -4.20159     2.78542     0.67094
H     -4.15245     4.35781     1.47167
H     -4.08331     4.24896    -0.31224
C      2.46954    -2.83359     0.84783
C      3.01685    -3.43220     2.10548
O      2.84953    -1.77141     0.38559
O      1.51094    -3.55067     0.28797
H      1.26183    -3.15702    -0.57774
H      4.07954    -3.21740     2.18170
H      2.51278    -2.96237     2.94867
H      2.83783    -4.50261     2.12919
