 72
-2063.3224273218198
C     -1.24624    -4.86724    -0.35095
C     -0.55235    -5.53700    -1.48990
O     -0.69905    -4.67995     0.73485
O     -2.46746    -4.47383    -0.59886
H     -2.89661    -4.08053     0.21132
H     -1.27284    -5.87170    -2.22783
H      0.12180    -4.80716    -1.93512
H      0.04399    -6.36283    -1.11303
C      1.96086    -0.98976    -4.12783
C      0.90773    -1.93081    -4.61238
O      1.70594     0.15322    -3.75792
O      3.17137    -1.47622    -4.11525
H      3.80409    -0.81062    -3.73067
H      0.61811    -2.55962    -3.77125
H      0.04251    -1.37137    -4.95521
H      1.30206    -2.56160    -5.40440
C     -2.58845     4.31356     4.01266
C     -2.67308     5.64796     4.69663
O     -2.84812     3.26353     4.57969
O     -2.20408     4.38944     2.75563
H     -2.19594     3.48987     2.33437
H     -2.97553     5.51175     5.72776
H     -1.70558     6.14240     4.65000
H     -3.39140     6.27641     4.17536
C     -3.10699    -3.31240     2.64378
C     -3.82247    -2.67040     3.78930
O     -3.63292    -3.51196     1.56026
O     -1.85556    -3.62665     2.90922
H     -1.43117    -4.05109     2.12498
H     -3.39530    -1.68527     3.96595
H     -4.87683    -2.57415     3.55632
H     -3.68179    -3.25850     4.69312
C     -2.12111     0.92800     2.32972
C     -1.75692    -0.36893     1.68446
O     -2.15040     1.98456     1.71800
O     -2.42862     0.82827     3.60463
H     -2.60199     1.73062     3.99090
H     -2.68506    -0.86175     1.40267
H     -1.16943    -0.19072     0.79314
H     -1.21209    -0.98972     2.38301
C      1.32085    -1.97769    -0.50886
C      2.30828    -0.85976    -0.55928
O      0.94518    -2.60555    -1.47709
O      0.87623    -2.23918     0.72335
H      0.33032    -3.03902     0.69299
H      1.81474     0.03513    -0.92406
H      2.71418    -0.66310     0.42620
H      3.09423    -1.12733    -1.25457
C      4.44432     1.28387    -2.34686
C      5.36324     1.98849    -1.41089
O      4.75858     0.28679    -2.97191
O      3.23762     1.83519    -2.45786
H      2.64569     1.23428    -2.97989
H      5.37642     3.05168    -1.63869
H      4.97844     1.87590    -0.39862
H      6.35856     1.56483    -1.48479
C     -0.81273     1.48915    -2.09695
C     -1.65209     2.69148    -1.78048
O     -0.18656     0.86129    -1.27651
O     -0.82051     1.18016    -3.39779
H     -0.11170     0.53136    -3.54397
H     -2.10866     2.57252    -0.80260
H     -0.99327     3.55898    -1.74012
H     -2.40486     2.84370    -2.54977
C      2.07179     2.84210     0.64453
C      1.28489     3.37841     1.80576
O      2.92310     1.99048     0.71769
O      1.71628     3.43086    -0.50793
H      2.21903     3.00308    -1.21738
H      0.23847     3.45749     1.53185
H      1.40049     2.73032     2.66691
H      1.64551     4.37727     2.05192
