 56
-1604.8042515384677
C      5.68972     0.37365    -0.30461
C      6.85916     1.16173     0.20523
O      5.69541    -0.84755    -0.34439
O      4.66963     1.10895    -0.69437
H      3.93567     0.54041    -1.03829
H      6.62107     2.21835     0.24262
H      7.13282     0.79232     1.18963
H      7.70759     0.99076    -0.45303
C     -0.94543     0.25920    -1.94682
C     -2.13803     1.11817    -2.23078
O     -0.96063    -0.94769    -1.93837
O      0.15867     0.97187    -1.69208
H      0.90473     0.35902    -1.58595
H     -2.00460     2.10309    -1.79641
H     -2.26357     1.21404    -3.30941
H     -3.01731     0.63020    -1.82255
C     -1.04908     2.65898     1.47191
C      0.42219     2.90763     1.40801
O     -1.83686     3.11643     0.65658
O     -1.41874     1.91200     2.48982
H     -6.67957     1.67902     0.43470
H      0.65615     3.79396     1.99672
H      0.94872     2.05584     1.82136
H      0.70680     3.07617     0.37644
C      1.28517    -1.65472     1.25000
C      2.64142    -1.39283     1.83662
O      1.01836    -2.60519     0.55668
O      0.39140    -0.70424     1.55003
H     -0.47111    -0.96828     1.18359
H      3.21245    -0.78004     1.14165
H      2.57205    -0.86209     2.78098
H      3.16607    -2.33276     1.96255
C     -3.20694    -1.85579     0.16728
C     -2.61087    -3.11837    -0.35551
O     -4.26669    -1.40219    -0.18494
O     -2.42333    -1.21958     1.07415
H     -2.92611    -0.46455     1.43595
H     -1.79546    -3.45436     0.27455
H     -3.38962    -3.87372    -0.43502
H     -2.22936    -2.90950    -1.35347
C     -4.69196     1.48823     1.16467
C     -6.08080     0.97288     0.99776
O     -3.90245     1.01062     1.97953
O     -4.36922     2.47684     0.37359
H     -3.42488     2.76221     0.51138
H     -2.36555     1.66231     2.39851
H     -6.01564     0.02837     0.46027
H     -6.51102     0.77363     1.97507
C      2.83242    -1.63180    -1.89503
C      1.75508    -2.41572    -2.55651
O      2.70634    -0.44449    -1.58556
O      3.92084    -2.30841    -1.64553
H      4.59786    -1.74925    -1.17746
H      1.08479    -2.76269    -1.76907
H      1.18042    -1.77558    -3.21497
H      2.17856    -3.26623    -3.08003
