 80
-2292.58680246391
C      2.13938    -0.64612     3.37533
C      1.14994    -0.85351     4.47564
O      2.02196     0.19617     2.50061
O      3.17383    -1.46913     3.43620
H      3.79425    -1.27917     2.70687
H      0.94491     0.09955     4.95823
H      0.22548    -1.20248     4.02128
H      1.51832    -1.57829     5.19645
C     -2.17686     2.71822     1.29164
C     -3.50447     2.44063     0.66991
O     -1.91479     2.44426     2.45760
O     -1.32491     3.31495     0.49048
H     -0.45532     3.45759     0.94858
H     -3.37196     2.21475    -0.38450
H     -3.98793     1.62308     1.19348
H     -4.11213     3.34214     0.76343
C     -0.14523    -2.28072    -3.51091
C     -1.07806    -1.79778    -4.57362
O     -0.13261    -3.43462    -3.12123
O      0.64835    -1.34117    -3.03450
H      1.24486    -1.71843    -2.33515
H     -1.47447    -2.63324    -5.13972
H     -1.90651    -1.27478    -4.10130
H     -0.57219    -1.09266    -5.22392
C     -0.61381    -0.93059     0.91886
C     -1.48359    -1.24767    -0.25518
O     -0.30635    -1.73259     1.76640
O     -0.18668     0.33550     0.93938
H      0.55964     0.41903     1.56859
H     -1.38641    -0.47501    -1.01033
H     -1.18964    -2.21563    -0.64937
H     -2.51989    -1.31049     0.06813
C      1.96202    -3.48812    -0.58903
C      2.70597    -3.85787     0.65396
O      2.14681    -2.42647    -1.17108
O      1.08361    -4.37962    -0.98017
H      0.62413    -4.07255    -1.80421
H      2.15776    -3.44859     1.50062
H      2.76144    -4.93786     0.75822
H      3.69311    -3.40984     0.63296
C     -3.01939    -0.80363     3.21709
C     -3.13445    -2.14105     3.88538
O     -3.49702    -0.52720     2.14205
O     -2.28958     0.05868     3.93423
H     -2.18871     0.87535     3.41920
H     -4.00594    -2.66811     3.51026
H     -2.24330    -2.71934     3.64118
H     -3.18312    -2.02624     4.96503
C     -3.91490     0.68063    -5.31698
C     -5.07540     0.36901    -6.21459
O     -2.86979     1.14596    -5.74754
O     -4.11623     0.39412    -4.04955
H     -3.34105     0.67064    -3.49746
H     -5.86258    -0.12827    -5.65966
H     -5.44592     1.29626    -6.64532
H     -4.72924    -0.25420    -7.03497
C      1.23812     3.33319     2.91979
C      2.60632     3.52831     3.48899
O      0.93994     3.66040     1.78451
O      0.39384     2.75800     3.75542
H     -0.48195     2.63756     3.32252
H      3.12519     2.57335     3.43707
H      3.14837     4.26342     2.90461
H      2.54107     3.82894     4.53022
C      5.36722    -0.26602     0.51445
C      4.34010     0.39244    -0.35177
O      5.12815    -1.03685     1.41980
O      6.62834     0.05531     0.19274
H      7.20587    -0.43132     0.79472
H      3.85312    -0.36829    -0.95874
H      3.57695     0.83739     0.28057
H      4.79816     1.14312    -0.98985
C     -0.95595     1.55909    -3.06036
C      0.15880     1.92941    -2.14386
O     -2.03058     1.14716    -2.64577
O     -0.69024     1.71311    -4.33543
H     -1.50068     1.53333    -4.88154
H      0.19994     3.01399    -2.05248
H     -0.04408     1.51882    -1.16433
H      1.10347     1.56920    -2.53436
