 72
-2063.326673740184
C      4.83700     0.10696     2.73167
C      5.11521    -0.76630     3.92176
O      4.73535     1.32101     2.83487
O      4.69544    -0.54498     1.60066
H      4.55256     0.09434     0.84531
H      5.15011    -1.81033     3.63232
H      6.05912    -0.46511     4.36967
H      4.33424    -0.60411     4.66118
C     -1.00032     2.24555    -1.09924
C     -1.75551     1.53550    -0.02726
O     -0.48433     1.63543    -2.03516
O     -0.91468     3.54021    -0.97258
H     -0.40744     3.95480    -1.72610
H     -1.04149     0.91437     0.50692
H     -2.22396     2.24207     0.64941
H     -2.49760     0.87908    -0.47015
C      0.92324     1.37488     2.54697
C      1.32933     2.49915     3.44806
O      1.10714     1.34955     1.35295
O      0.33009     0.37650     3.21311
H      0.13680    -0.36156     2.60690
H      1.44930     3.40432     2.86435
H      0.59699     2.63876     4.23988
H      2.28889     2.24484     3.89569
C     -2.86089    -4.26976     1.42445
C     -4.17120    -4.90028     1.74874
O     -2.58233    -3.11090     1.73534
O     -2.03066    -5.03658     0.76486
H     -1.17310    -4.56692     0.59098
H     -4.92028    -4.44828     1.09905
H     -4.12286    -5.96917     1.57745
H     -4.44125    -4.67541     2.77696
C     -4.98878    -1.49103    -0.30734
C     -5.78979    -0.50872    -1.10010
O     -5.13457    -2.69047    -0.33746
O     -4.04625    -0.90457     0.45036
H     -3.57713    -1.61278     0.91429
H     -5.20958    -0.21705    -1.97440
H     -6.71172    -0.97867    -1.42728
H     -5.99441     0.38147    -0.51026
C      0.48852    -2.56730     0.70538
C      1.75008    -1.88209     0.30257
O      0.19058    -3.68402     0.33206
O     -0.29273    -1.86288     1.52006
H     -1.16364    -2.31986     1.63516
H      2.60880    -2.48673     0.58804
H      1.76093    -1.76625    -0.77901
H      1.82116    -0.90660     0.77089
C     -2.10929    -1.57548    -2.35005
C     -2.16621    -3.07273    -2.43448
O     -2.98595    -0.83686    -2.72439
O     -0.97387    -1.13497    -1.78398
H     -0.92270    -0.16400    -1.88441
H     -2.94040    -3.42795    -1.75561
H     -2.44912    -3.36544    -3.44348
H     -1.21049    -3.51237    -2.17021
C      1.00187     4.02973    -3.83702
C      1.82686     4.73748    -4.86475
O      0.48441     4.61908    -2.90006
O      0.89475     2.73288    -4.02829
H      0.33871     2.32051    -3.32266
H      2.75708     5.06200    -4.40453
H      2.04184     4.08052    -5.69983
H      1.30099     5.62825    -5.19599
C      3.80015     2.23643    -0.21993
C      3.02407     2.91382    -1.30020
O      4.27418     1.11832    -0.35400
O      3.91020     2.94024     0.88548
H      4.28625     2.38128     1.60666
H      1.97226     2.70681    -1.12668
H      3.17304     3.98724    -1.27684
H      3.29945     2.49896    -2.26172
