 40
-1146.2818964409728
C      2.30531    -0.97647    -1.55665
C      3.19103     0.03067    -2.22564
O      2.56812    -1.55841    -0.53232
O      1.15048    -1.14465    -2.21795
H      0.61025    -1.79626    -1.74144
H      2.89394     1.02761    -1.90005
H      4.22080    -0.14280    -1.92889
H      3.08070    -0.02780    -3.30521
C     -0.66107    -3.48823     0.02688
C      0.72443    -3.96237     0.31255
O     -0.91620    -2.66315    -0.84769
O     -1.57875    -4.01299     0.79914
H     -2.47833    -3.62351     0.61710
H      1.30080    -3.96873    -0.60528
H      1.20176    -3.25247     0.98498
H      0.70099    -4.94186     0.77821
C      0.42615     1.72861     0.99691
C     -0.29876     0.42461     0.86367
O      1.11163     2.17844     0.08778
O      0.26961     2.32581     2.15309
H      0.78271     3.17694     2.18853
H     -0.76635     0.37533    -0.11362
H      0.43301    -0.37869     0.91056
H     -1.03317     0.28749     1.64763
C     -4.31719    -2.32938    -0.60728
C     -5.72699    -1.90426    -0.88731
O     -3.99613    -2.98400     0.37083
O     -3.45921    -1.92224    -1.52436
H     -2.54556    -2.20251    -1.29196
H     -6.38784    -2.31129    -0.13199
H     -5.78114    -0.81789    -0.88597
H     -6.02050    -2.24848    -1.87600
C      2.30039     5.05403     1.31304
C      3.04487     6.35260     1.42786
O      1.63626     4.60783     2.23709
O      2.43152     4.46085     0.14815
H      1.92757     3.60220     0.12433
H      3.57631     6.56665     0.50802
H      2.33637     7.14598     1.65293
H      3.73736     6.28775     2.26346
