 80
-2292.58130737783
C      2.59927    -1.52799    -5.47295
C      2.38914    -1.81244    -6.92799
O      3.17178    -2.30428    -4.72614
O      2.10616    -0.36669    -5.08037
H      2.26841    -0.22763    -4.12293
H      3.35076    -2.02218    -7.38856
H      1.78056    -2.70826    -7.02352
H      1.90537    -0.97298    -7.41303
C     -5.81859     0.49246    -2.86792
C     -7.21803     0.86378    -3.25819
O     -4.84440     1.02170    -3.38295
O     -5.74450    -0.42841    -1.93245
H     -4.80003    -0.65242    -1.72361
H     -7.35921     1.92758    -3.08249
H     -7.34409     0.69157    -4.32403
H     -7.93763     0.28590    -2.69017
C     -1.44026    -2.14453     2.03648
C     -2.82360    -1.68330     1.71591
O     -0.62811    -2.45251     1.17425
O     -1.17052    -2.19738     3.32579
H     -0.22277    -2.41409     3.48155
H     -2.79229    -0.61719     1.49658
H     -3.18708    -2.17856     0.82332
H     -3.48122    -1.85558     2.56182
C      3.09254     0.28884     3.64717
C      3.40538     1.74988     3.79023
O      3.66120    -0.44967     2.88154
O      2.09516    -0.09526     4.45989
H      1.82856    -1.00397     4.24611
H      3.22534     2.08842     4.80618
H      4.43536     1.93204     3.49839
H      2.75675     2.31080     3.11772
C      2.16041    -3.19878     2.84132
C      3.54615    -3.66167     3.14792
O      1.41563    -2.73304     3.70400
O      1.80439    -3.31142     1.58963
H      0.87238    -2.99517     1.43811
H      3.54194    -4.23133     4.07322
H      3.93717    -4.25460     2.32866
H      4.16381    -2.77698     3.29381
C     -2.24173    -0.37219    -1.84342
C     -0.84720    -0.67115    -1.39442
O     -3.21808    -0.95997    -1.39914
O     -2.31903     0.58405    -2.73884
H     -3.25912     0.73117    -3.01597
H     -0.14393    -0.08548    -1.97267
H     -0.77148    -0.43449    -0.33467
H     -0.65477    -1.73534    -1.48891
C     -0.36768     1.55950     2.87267
C     -1.13873     0.93293     3.98667
O     -0.21378     2.75381     2.71829
O      0.19389     0.65889     2.07011
H      0.82997     1.09187     1.46836
H     -1.49822     1.69861     4.66561
H     -1.97816     0.37073     3.58431
H     -0.50218     0.22742     4.51317
C      1.92754     3.02657    -0.38563
C      1.61388     4.46701    -0.13924
O      1.80114     2.14752     0.44795
O      2.36588     2.78865    -1.61197
H      2.46514     1.82754    -1.74905
H      1.77222     4.69029     0.91038
H      2.22610     5.09920    -0.77383
H      0.56404     4.64582    -0.36722
C      2.90392    -0.90745    -1.62419
C      2.84815    -0.81181    -0.14155
O      2.59442     0.01932    -2.37472
O      3.30658    -2.06812    -2.07713
H      3.27032    -2.11743    -3.07052
H      3.50530    -1.54583     0.30828
H      3.09574     0.18638     0.19307
H      1.83408    -1.04094     0.17949
C     -2.68263     2.68146     0.64279
C     -3.72115     2.94747    -0.41191
O     -2.59620     1.63250     1.24440
O     -1.86639     3.71603     0.82875
H     -1.20794     3.48287     1.51738
H     -4.37441     2.08612    -0.48385
H     -4.30023     3.83535    -0.16764
H     -3.24162     3.11221    -1.37441
