 48
-1375.5395992331573
C     -1.46049    -1.00264     0.99148
C     -0.75236     0.26590     1.33421
O     -1.71688    -1.31642    -0.16449
O     -1.78188    -1.74481     2.02405
H     -2.24089    -2.57465     1.72774
H     -0.16378     0.58654     0.48704
H     -1.47948     1.04462     1.54853
H     -0.13378     0.11857     2.21168
C      1.44911    -1.74269    -1.58525
C      0.59192    -2.21454    -2.71077
O      1.62150    -0.54788    -1.35126
O      1.98506    -2.68231    -0.85946
H      2.53320    -2.28520    -0.12021
H      1.03237    -3.08277    -3.19128
H     -0.37610    -2.49870    -2.29989
H      0.45582    -1.40234    -3.41663
C      0.52797     2.69786    -1.94464
C      0.33900     4.04950    -2.54946
O      0.21698     2.40642    -0.80633
O      1.07151     1.81394    -2.78132
H      1.18700     0.96852    -2.31549
H      0.69599     4.80862    -1.86098
H      0.84363     4.10348    -3.50742
H     -0.72804     4.22581    -2.67502
C     -0.94817     4.84208     1.21733
C     -1.47257     5.62829     2.39049
O     -0.71177     5.32766     0.13966
O     -0.77798     3.54992     1.52294
H     -0.43312     3.06800     0.74392
H     -1.72970     4.96897     3.21205
H     -0.70677     6.33420     2.70428
H     -2.33921     6.20067     2.07041
C      3.49412    -0.42450     1.36994
C      4.29343     0.03824     2.55016
O      3.41155    -1.60494     1.06272
O      2.89551     0.54341     0.70474
H      2.40394     0.17389    -0.06532
H      4.19790     1.11070     2.67291
H      3.94657    -0.48254     3.43891
H      5.33472    -0.23396     2.39663
C     -3.16916    -4.28401     0.00103
C     -3.79727    -5.59039    -0.38965
O     -2.98254    -3.97885     1.16820
O     -2.84712    -3.51771    -1.02078
H     -2.43670    -2.66887    -0.70278
H     -3.83358    -5.68632    -1.46867
H     -3.22309    -6.40282     0.04836
H     -4.79975    -5.63717     0.02878
