 40
-1146.2887833700408
C      2.90443    -1.28658     1.50764
C      3.33616    -1.43720     2.93254
O      2.21933    -2.10288     0.92094
O      3.32417    -0.16329     0.95688
H      2.85006    -0.01672     0.11136
H      3.30748    -2.48264     3.21950
H      4.32780    -1.01927     3.07933
H      2.63275    -0.88192     3.55249
C      1.26476     0.08302    -2.12766
C      1.88632    -0.76181    -3.19689
O      1.86400     0.50525    -1.15554
O     -0.01541     0.31368    -2.33420
H     -0.41528     0.78948    -1.58141
H      1.58596    -1.79660    -3.03655
H      1.52517    -0.45286    -4.17405
H      2.96687    -0.69099    -3.14580
C      0.34107     1.64844     1.37667
C      1.33977     2.67698     1.79563
O     -0.39164     1.77864     0.40897
O      0.35542     0.56490     2.11868
H     -0.21969    -0.13350     1.70444
H      2.25366     2.48437     1.23613
H      0.98456     3.67026     1.54156
H      1.55171     2.59692     2.85722
C     -3.42083     1.50963    -0.72091
C     -4.89028     1.66712    -1.01416
O     -2.72292     0.66745    -1.23925
O     -2.97758     2.38352     0.17827
H     -2.02168     2.21649     0.31096
H     -5.03395     1.76838    -2.08779
H     -5.40654     0.76141    -0.70020
H     -5.29705     2.52648    -0.49264
C     -1.09173    -1.90877    -0.03672
C     -2.30450    -2.26219    -0.83922
O     -1.11874    -1.24496     0.98405
O      0.02512    -2.38317    -0.55659
H      0.80207    -2.21175     0.03006
H     -3.19494    -1.99102    -0.28386
H     -2.27892    -1.68355    -1.75902
H     -2.29977    -3.32329    -1.07845
