 80
-2292.58803352871
C      5.39996    -1.61905     4.94034
C      5.94552    -1.38652     6.32015
O      5.61619    -2.64972     4.32274
O      4.67959    -0.62043     4.47212
H      4.37596    -0.81948     3.54668
H      5.65727    -2.21785     6.95812
H      7.03151    -1.37476     6.26798
H      5.57843    -0.44907     6.72178
C     -6.08394     1.62265     0.89516
C     -7.43004     0.97014     0.80146
O     -5.92657     2.83268     0.94135
O     -5.08088     0.76163     0.90467
H     -4.24193     1.23969     1.09715
H     -7.46912     0.34936    -0.09099
H     -7.57982     0.31896     1.65972
H     -8.20408     1.72688     0.76854
C     -1.27608    -1.84572    -1.15977
C     -2.12700    -0.82186    -0.48039
O     -1.52029    -2.24461    -2.28617
O     -0.25319    -2.26362    -0.44374
H      0.29434    -2.90649    -0.95515
H     -3.00909    -1.29983    -0.05710
H     -1.57608    -0.33203     0.31520
H     -2.46298    -0.10909    -1.22466
C      2.33677     1.38233    -0.59294
C      3.20729     1.81466     0.54173
O      2.27523     0.23672    -1.00984
O      1.62583     2.36844    -1.11304
H      1.04809     2.00097    -1.81252
H      3.80327     0.97827     0.88472
H      3.84020     2.63836     0.21513
H      2.56181     2.16087     1.34281
C      1.15522    -3.86733    -3.21313
C      2.35431    -4.10624    -4.08196
O      1.19899    -3.87486    -1.99556
O      0.05177    -3.63921    -3.90245
H     -0.63106    -3.24960    -3.30890
H      2.81996    -3.14262    -4.28471
H      3.06760    -4.73638    -3.56041
H      2.04869    -4.55320    -5.02225
C      0.13293     0.75114     3.07651
C      0.99444     0.13915     4.14408
O      0.47065     0.92219     1.92786
O     -1.07514     1.08994     3.54022
H     -1.60565     1.45966     2.81361
H      1.04400     0.80245     5.00682
H      0.54628    -0.79802     4.47165
H      1.98632    -0.04645     3.75209
C      0.30736     0.13802    -3.59415
C     -0.38455    -0.18725    -4.87063
O      0.01077     1.09171    -2.88315
O      1.28717    -0.67398    -3.26978
H      1.66760    -0.40955    -2.39293
H     -1.18849     0.51846    -5.03130
H      0.33182    -0.15751    -5.68990
H     -0.78698    -1.19508    -4.80528
C     -2.61228     3.20875     0.99449
C     -1.22990     3.70885     0.73884
O     -2.84464     2.11810     1.50917
O     -3.56910     4.02245     0.62321
H     -4.45802     3.61415     0.79451
H     -0.52946     3.11179     1.31121
H     -1.00132     3.58649    -0.31652
H     -1.15019     4.76264     0.99398
C      3.77154    -2.33829     1.56703
C      2.95062    -2.60814     0.35060
O      3.85784    -1.22183     2.06700
O      4.39320    -3.38529     2.05925
H      4.87823    -3.13869     2.88871
H      1.90466    -2.43393     0.57955
H      3.21774    -1.89559    -0.42090
H      3.08915    -3.62619     0.00911
C     -3.25234     2.12156    -2.93668
C     -4.54483     2.81297    -2.60419
O     -3.12337     1.26872    -3.77633
O     -2.24525     2.54887    -2.15228
H     -1.43311     2.07690    -2.41872
H     -5.27826     2.62807    -3.38197
H     -4.91505     2.41568    -1.66209
H     -4.38479     3.87877    -2.47103
