 80
-2292.5874551314773
C      3.77740     1.44713     0.25552
C      4.25247     1.72299     1.64329
O      3.23535     0.40006    -0.06390
O      3.99476     2.43121    -0.59125
H      3.65930     2.18147    -1.48992
H      3.68720     2.55747     2.04575
H      4.09777     0.85000     2.26325
H      5.30627     1.99569     1.62240
C     -0.81895     1.53930    -2.81779
C      0.10760     2.29771    -1.92463
O     -1.99410     1.32673    -2.53695
O     -0.28603     1.13107    -3.94001
H     -0.94584     0.64692    -4.51199
H      0.69728     2.99219    -2.51627
H     -0.46324     2.82219    -1.17030
H      0.79408     1.62573    -1.41552
C     -1.49294    -6.33517     0.57016
C     -1.66624    -7.64851     1.27571
O     -1.44102    -6.26117    -0.64867
O     -1.40681    -5.29899     1.37554
H     -1.30600    -4.45793     0.85949
H     -2.62058    -8.07946     0.98258
H     -0.88626    -8.33089     0.94822
H     -1.62864    -7.51013     2.34990
C      0.79963     3.99238     1.13271
C      1.96632     4.93359     1.24237
O     -0.35563     4.33548     1.08516
O      1.18712     2.71082     1.09493
H      0.39525     2.13912     1.00233
H      1.61249     5.95490     1.13156
H      2.43360     4.82248     2.22005
H      2.71173     4.70763     0.48429
C     -1.03764    -2.98555    -1.22265
C     -0.87272    -1.67464    -1.92460
O     -1.12148    -3.07426    -0.00489
O     -1.08657    -4.01566    -2.03198
H     -1.21794    -4.86009    -1.52281
H     -0.92682    -0.87780    -1.19701
H      0.08169    -1.65222    -2.43880
H     -1.66339    -1.55810    -2.65779
C     -2.09909     1.58069     1.10563
C     -2.69279     1.80763     2.45434
O     -0.99252     1.10360     0.91171
O     -2.88169     1.96086     0.11321
H     -2.44207     1.78253    -0.73776
H     -2.54311     2.85532     2.71412
H     -3.76268     1.61679     2.42655
H     -2.20068     1.17545     3.18540
C      0.31404     1.30211     6.48695
C      0.18945     2.10661     7.74971
O      1.34874     1.28079     5.83627
O     -0.77257     0.64062     6.15532
H     -0.62520     0.11407     5.32255
H     -0.79953     1.98925     8.17750
H      0.95084     1.77795     8.45277
H      0.38545     3.15155     7.52188
C     -3.14362    -0.44156    -5.19717
C     -4.00670    -1.23571    -6.12755
O     -1.95692    -0.24185    -5.41020
O     -3.77173     0.02289    -4.13570
H     -3.15809     0.53948    -3.56940
H     -4.12720    -0.67571    -7.05222
H     -3.50543    -2.16787    -6.37281
H     -4.97515    -1.42369    -5.67855
C      2.89372     0.47093    -3.28504
C      2.92522     0.01761    -4.71230
O      3.10227     1.62818    -2.95569
O      2.61168    -0.48124    -2.41910
H      2.79072    -0.17600    -1.48815
H      3.91404     0.20687    -5.12554
H      2.68067    -1.03690    -4.77385
H      2.20947     0.60330    -5.28209
C      0.61916    -0.67734     3.22412
C      0.69628    -1.41980     1.93491
O     -0.35922    -0.72620     3.95551
O      1.68649     0.04323     3.50581
H      1.58044     0.49923     4.38169
H      1.68708    -1.32694     1.50813
H      0.42956    -2.46021     2.09966
H     -0.04677    -1.00878     1.26155
