 72
-2063.3299111330184
C      4.51009     0.27032     2.53162
C      4.79365    -1.07882     3.11764
O      5.22142     0.85132     1.74897
O      3.34206     0.77519     2.96607
H      3.12556     1.55674     2.43445
H      4.23518    -1.82402     2.55056
H      5.85372    -1.29509     3.03287
H      4.46833    -1.12111     4.15393
C      2.58369     3.88460     1.16893
C      3.86957     4.23444     1.84912
O      2.09307     2.75315     1.24252
O      2.02479     4.85699     0.51157
H      1.13966     4.58418     0.12763
H      4.16778     5.24991     1.61235
H      3.72712     4.12298     2.92268
H      4.63304     3.52135     1.54902
C     -1.04825     3.34192     0.12077
C     -2.49563     3.25220    -0.21621
O     -0.27272     4.09901    -0.43975
O     -0.66329     2.51487     1.07717
H      0.31274     2.53465     1.15215
H     -2.58330     2.77141    -1.18692
H     -3.01923     2.67202     0.53231
H     -2.90705     4.25637    -0.29197
C     -2.53435    -0.97219     1.61763
C     -1.17122    -0.50097     1.98411
O     -2.89257    -2.13438     1.72929
O     -3.32291    -0.01718     1.16138
H     -4.20812    -0.39182     0.91817
H     -0.55154    -1.34266     2.26422
H     -0.73815     0.02495     1.13910
H     -1.23937     0.21497     2.80090
C      0.27164    -3.35831    -0.86131
C     -1.04509    -4.05249    -0.72331
O      0.85292    -3.25382    -1.92922
O      0.74506    -2.87062     0.26565
H      1.63615    -2.46465     0.12381
H     -1.41813    -3.95810     0.28914
H     -1.74093    -3.60155    -1.42543
H     -0.91771    -5.10071    -0.99242
C      3.59171    -1.53681    -1.27898
C      4.93265    -0.90591    -1.48648
O      3.16782    -1.86043    -0.18187
O      2.90677    -1.68783    -2.39334
H      2.08950    -2.23633    -2.23593
H      5.35945    -0.65478    -0.52351
H      5.57722    -1.60461    -2.01952
H      4.82059    -0.01673    -2.10088
C      1.20050     1.01837    -1.99913
C      1.05144     1.11961    -3.47826
O      0.48862     0.38717    -1.25004
O      2.24358     1.70460    -1.53295
H      2.20234     1.70612    -0.56790
H      1.74530     0.41930    -3.94449
H      0.03677     0.86350    -3.75984
H      1.30159     2.12737    -3.80249
C     -2.50341    -0.38809    -2.36014
C     -3.83416    -1.01322    -2.65777
O     -2.09896     0.63235    -2.86308
O     -1.79909    -1.08885    -1.45876
H     -0.93533    -0.63945    -1.34907
H     -4.49296    -0.88311    -1.80100
H     -4.27110    -0.52980    -3.52631
H     -3.72142    -2.07972    -2.84101
C     -6.03823    -2.22926     0.79961
C     -7.43615    -2.69329     0.50927
O     -5.65734    -1.10321     0.50807
O     -5.27797    -3.12656     1.38088
H     -4.35899    -2.76926     1.53075
H     -8.13915    -2.04950     1.03281
H     -7.62656    -2.58523    -0.55604
H     -7.56452    -3.72445     0.81654
