 32
-917.0182236147555
C      1.48950    -1.73352    -3.58525
C      2.79305    -2.25835    -4.12091
O      0.44318    -1.77314    -4.18326
O      1.62368    -1.20823    -2.35581
H      0.75566    -0.88968    -2.06023
H      2.65267    -3.28864    -4.43810
H      3.06649    -1.68082    -5.00143
H      3.57198    -2.19069    -3.36999
C     -2.18181    -0.26459    -1.63551
C     -2.35648    -0.84722    -2.99191
O     -3.10667     0.13013    -0.94959
O     -0.91923    -0.20862    -1.22819
H     -0.85795     0.20451    -0.33206
H     -1.95939    -1.85810    -3.00718
H     -3.40797    -0.84237    -3.25516
H     -1.77575    -0.27792    -3.71224
C      2.27903     0.69061     3.17956
C      3.68822     1.03650     3.57314
O      1.65746    -0.25939     3.58344
O      1.77745     1.59211     2.31702
H      0.88824     1.30236     2.04835
H      4.03842     0.33317     4.31999
H      4.33339     0.99853     2.69672
H      3.72453     2.05196     3.96350
C     -1.72558     1.04669     1.95312
C     -1.54152     1.42091     3.38785
O     -0.77309     0.91672     1.18644
O     -2.96359     0.86601     1.58530
H     -3.01772     0.59511     0.62618
H     -2.49792     1.61024     3.86309
H     -1.01446     0.61058     3.88773
H     -0.89942     2.29653     3.43908
