 64
-1834.0578429292161
C     -4.37657    -1.59006    -0.34442
C     -5.18084    -2.83011    -0.15145
O     -4.19685    -0.76345     0.54675
O     -3.86338    -1.46279    -1.54206
H     -3.29170    -0.66256    -1.61449
H     -5.64338    -3.12320    -1.08812
H     -4.49812    -3.61647     0.16301
H     -5.92137    -2.67096     0.62477
C      3.22684     2.38511     1.63753
C      3.03022     3.80079     2.06558
O      3.18027     1.43716     2.41822
O      3.45398     2.22805     0.35341
H      3.55664     1.27555     0.11534
H      3.58777     3.97819     2.98105
H      3.33829     4.47655     1.27650
H      1.97150     3.93274     2.28300
C      0.80814    -1.80938    -1.45668
C     -0.34864    -2.24558    -2.29673
O      1.35747    -2.50465    -0.63573
O      1.19617    -0.55328    -1.72190
H      1.99499    -0.35944    -1.20520
H     -0.95239    -1.39181    -2.58645
H      0.03716    -2.72740    -3.19677
H     -0.94265    -2.96479    -1.74138
C      4.02126    -1.26041     0.52354
C      4.43633    -2.63228     0.10715
O      3.71871    -0.37890    -0.27674
O      3.99785    -1.07099     1.82357
H      3.69930    -0.15801     2.05058
H      3.53180    -3.18030    -0.15224
H      5.06258    -2.56726    -0.77771
H      4.94902    -3.13013     0.92228
C     -1.49870    -2.54673     1.77636
C     -0.16816    -2.85772     2.38842
O     -2.01142    -3.18658     0.89031
O     -2.07916    -1.46500     2.32614
H     -2.89343    -1.27145     1.83644
H     -0.27672    -3.75799     2.99494
H      0.54413    -3.06355     1.59325
H      0.16852    -2.03105     3.00379
C     -1.92454     1.40297    -0.81638
C     -0.85316     2.43139    -0.89919
O     -2.25908     0.68982    -1.76076
O     -2.51207     1.32532     0.35805
H     -3.17360     0.59248     0.38679
H     -0.53829     2.72262     0.09615
H     -0.02548     2.03016    -1.47434
H     -1.24246     3.28672    -1.44909
C     -0.16976     1.59575     3.22981
C     -1.52617     1.41557     3.83431
O      0.16480     2.54722     2.56369
O      0.65416     0.57250     3.50458
H      1.53209     0.77693     3.14110
H     -1.53112     1.87107     4.82576
H     -2.25745     1.91672     3.21010
H     -1.75548     0.36156     3.92409
C     -0.18253     2.00491    -4.52521
C      0.63860     1.86352    -5.77778
O     -0.28084     3.01175    -3.86912
O     -0.79899     0.85331    -4.21087
H     -1.29159     0.96819    -3.38137
H      0.00010     1.56050    -6.60572
H      1.11855     2.80910    -6.00345
H      1.38866     1.08682    -5.63649
