 32
-917.0142539921188
C      0.73562    -3.98295    -1.28791
C      1.39407    -2.72791    -0.79688
O     -0.23642    -4.50825    -0.80856
O      1.35218    -4.48751    -2.38107
H      0.85787    -5.28073    -2.62155
H      1.02523    -1.88470    -1.37873
H      1.12900    -2.55596     0.23981
H      2.47315    -2.78727    -0.91693
C     -2.40867    -1.35620     0.19972
C     -2.81349    -2.78960     0.13240
O     -3.19784    -0.43668     0.04793
O     -1.12124    -1.16726     0.42450
H     -0.91200    -0.20346     0.44531
H     -3.85647    -2.88043     0.41523
H     -2.69474    -3.13322    -0.89253
H     -2.17103    -3.39687     0.75864
C      2.78862     3.12542     0.87926
C      4.29017     3.14648     0.94372
O      2.08610     4.08339     1.08791
O      2.31643     1.91379     0.54934
H      1.34460     1.94192     0.52820
H      4.66858     3.69959     0.08579
H      4.59893     3.67960     1.83903
H      4.69179     2.13912     0.93560
C     -1.34604     2.35425     0.32945
C     -0.97943     3.79937     0.40025
O     -0.51309     1.45395     0.43677
O     -2.61772     2.12419     0.14850
H     -2.81799     1.14428     0.11344
H     -0.17784     3.99784    -0.30534
H     -1.84525     4.41951     0.19693
H     -0.57301     4.01360     1.38514
