 40
-1146.2858109396595
C      1.76581    -2.77441    -0.96219
C      2.13643    -3.41341    -2.26133
O      0.65448    -2.86375    -0.46413
O      2.75246    -2.09400    -0.41447
H      2.40248    -1.52421     0.29951
H      1.47712    -4.24838    -2.47220
H      2.02081    -2.66383    -3.04328
H      3.17564    -3.72619    -2.23898
C      0.36404    -0.19755     1.46798
C     -0.27772     0.95285     2.16663
O      1.56181    -0.26901     1.23867
O     -0.47326    -1.15484     1.11920
H     -0.03251    -1.84476     0.54406
H     -0.94631     1.43695     1.45667
H     -0.86933     0.58721     3.00213
H      0.47475     1.65091     2.51641
C      2.52033     2.60867    -0.48020
C      2.51179     4.06134    -0.85531
O      2.67176     1.69443    -1.26347
O      2.32969     2.43211     0.82193
H      2.19814     1.48413     0.99381
H      1.47370     4.37690    -0.95028
H      2.97842     4.65422    -0.07486
H      3.01256     4.20468    -1.80610
C     -3.98940    -0.26156     1.75255
C     -5.33394    -0.43716     2.40649
O     -3.73445     0.55680     0.90523
O     -3.08545    -1.13238     2.23461
H     -2.23975    -0.99571     1.77383
H     -5.70878    -1.43975     2.20866
H     -5.23549    -0.32876     3.48490
H     -6.02417     0.30169     2.01675
C     -0.42324     0.56916    -1.66625
C     -1.64915    -0.15149    -2.13699
O     -0.43382     1.55842    -0.97327
O      0.70419    -0.02344    -2.07536
H      1.46390     0.52837    -1.78901
H     -2.52199     0.27973    -1.65894
H     -1.73693    -0.06425    -3.22023
H     -1.56603    -1.20777    -1.89027
