 80
-2292.586862402018
C     -0.93444     2.42137    -4.29825
C     -2.11734     2.84724    -5.10382
O     -0.56412     1.25940    -4.22490
O     -0.34000     3.40769    -3.66024
H      0.43120     3.06966    -3.14620
H     -2.38391     2.07179    -5.81334
H     -2.95650     3.01594    -4.42923
H     -1.90636     3.78253    -5.61513
C     -8.03815     2.49417    -1.91577
C     -9.52690     2.63114    -2.04862
O     -7.52964     1.77960    -1.06220
O     -7.34906     3.19806    -2.78360
H     -6.37168     3.07543    -2.64308
H     -9.77512     3.30162    -2.86304
H     -9.95834     1.64791    -2.21896
H     -9.93127     3.00481    -1.11115
C      1.37761    -2.77539     0.05255
C      0.16472    -1.96148    -0.24928
O      1.35548    -3.78494     0.73736
O      2.48718    -2.30152    -0.48154
H      3.26018    -2.82405    -0.16768
H      0.17432    -1.62361    -1.27708
H     -0.72627    -2.53984    -0.03064
H      0.15949    -1.08434     0.39312
C      5.89344    -1.25586     2.56648
C      6.13613     0.12898     3.08641
O      5.76725    -2.23743     3.25925
O      5.81355    -1.28739     1.22905
H      5.55248    -2.18367     0.96780
H      6.62040     0.07174     4.05666
H      6.73748     0.69970     2.38445
H      5.17509     0.62848     3.20539
C      4.46734    -4.65101     1.39054
C      5.67329    -5.21275     2.06515
O      4.53289    -3.77808     0.52728
O      3.32955    -5.15308     1.80291
H      2.56217    -4.70051     1.36283
H      6.47811    -5.30897     1.34244
H      5.98617    -4.49586     2.82388
H      5.43797    -6.16401     2.53023
C     -4.25401     2.14664    -1.55789
C     -2.77333     1.99394    -1.43607
O     -4.76645     2.86342    -2.40663
O     -4.94803     1.44244    -0.69625
H     -5.92635     1.57250    -0.82669
H     -2.45807     1.25682    -2.17124
H     -2.31292     2.94389    -1.67404
H     -2.48375     1.65949    -0.44851
C      1.63013    -1.20500     3.29592
C      2.17543    -2.32582     4.12269
O      0.46544    -0.86376     3.29471
O      2.55461    -0.63555     2.53292
H      2.14328     0.07175     1.99093
H      1.53815    -2.48107     4.98960
H      2.16829    -3.23009     3.51705
H      3.19560    -2.11335     4.42297
C      0.46051     2.09979     1.14833
C     -0.31060     2.37479     2.39398
O      1.37646     1.30316     1.05092
O      0.06397     2.82920     0.11215
H      0.63316     2.63961    -0.65144
H     -0.12939     3.40301     2.70683
H     -1.36830     2.25903     2.17743
H     -0.00743     1.67959     3.16679
C      2.15066     1.27159    -2.34415
C      3.49745     0.89539    -1.82117
O      1.70345     2.41158    -2.24057
O      1.47049     0.29721    -2.89229
H      0.66136     0.64335    -3.36722
H      3.56162     1.19192    -0.77737
H      3.64724    -0.17204    -1.91839
H      4.25783     1.44186    -2.37785
C     -2.83871    -0.72277     1.82564
C     -4.27354    -1.08295     1.56566
O     -2.25058     0.19209     1.29184
O     -2.26445    -1.54909     2.70063
H     -1.34306    -1.27808     2.84663
H     -4.30226    -2.02193     1.01301
H     -4.79544    -1.23106     2.50878
H     -4.75185    -0.30716     0.98314
