 40
-1146.282593575194
C      2.41608    -0.26886    -1.00561
C      2.80474     0.67879    -2.10047
O      2.95214    -0.34707     0.07104
O      1.37750    -1.04413    -1.37023
H      1.16188    -1.63530    -0.63257
H      3.35879     0.13863    -2.86870
H      1.91591     1.10674    -2.55506
H      3.43087     1.46606    -1.69297
C      0.74823    -3.23990     1.57696
C      2.20743    -3.55123     1.50160
O      0.13617    -2.74180     0.63376
O      0.18248    -3.54515     2.71388
H     -0.78397    -3.30095     2.71595
H      2.38078    -4.19576     0.64321
H      2.75250    -2.62506     1.33461
H      2.53803    -4.03195     2.41563
C      1.11914     4.66422    -0.69745
C      2.08808     5.76572    -0.38067
O      0.24020     4.33149     0.08305
O      1.31195     4.10152    -1.87241
H      0.64600     3.38115    -2.02861
H      1.53136     6.66108    -0.11722
H      2.67170     5.47594     0.48984
H      2.73928     5.95195    -1.22652
C     -3.04317    -2.54085     1.78537
C     -4.51872    -2.28426     1.84365
O     -2.39475    -2.92639     2.74362
O     -2.51768    -2.30688     0.59686
H     -1.54572    -2.48292     0.60997
H     -4.86421    -2.37618     2.86576
H     -4.72881    -1.29034     1.45720
H     -5.03350    -3.00289     1.20965
C     -1.19233     1.69957    -1.40212
C     -2.03068     0.48657    -1.66355
O     -0.41521     2.14103    -2.23792
O     -1.37178     2.23788    -0.21873
H     -0.77183     3.02302    -0.09763
H     -2.57213     0.20462    -0.76846
H     -2.72167     0.70960    -2.47544
H     -1.37942    -0.32206    -1.98200
