 48
-1375.5446993010114
C     -2.73616     0.92645     2.84846
C     -3.99957     0.16321     3.12494
O     -2.70465     2.09554     2.54254
O     -1.65232     0.15244     2.95256
H     -0.85922     0.68649     2.74391
H     -4.78339     0.85101     3.42667
H     -4.30110    -0.33823     2.20588
H     -3.83106    -0.59103     3.88892
C      1.97657    -1.47268     0.84569
C      1.18932    -1.37105     2.10665
O      2.08428    -0.54515     0.04233
O      2.54126    -2.63766     0.65740
H      3.08092    -2.65528    -0.18000
H      0.13217    -1.46316     1.86337
H      1.47353    -2.15585     2.80101
H      1.33197    -0.38843     2.53945
C      0.12293     2.37271     1.08877
C     -0.42432     3.76046     1.05669
O      0.36600     1.75526     2.10984
O      0.33227     1.84754    -0.11017
H      0.76751     0.98816     0.00525
H     -0.55741     4.09511     0.03521
H     -1.37013     3.76397     1.59417
H      0.26323     4.41678     1.58675
C     -3.11523     1.40318    -1.05234
C     -4.10552     2.48961    -0.78240
O     -2.99405     0.43269    -0.31759
O     -2.38752     1.58937    -2.12730
H     -1.78846     0.80922    -2.26941
H     -5.06477     2.04349    -0.53649
H     -3.77079     3.05234     0.08799
H     -4.19262     3.14971    -1.63840
C      4.39430    -1.70092    -2.10543
C      5.45810    -1.77700    -3.15852
O      3.92112    -2.70213    -1.58500
O      4.02021    -0.47803    -1.79802
H      3.30764    -0.48769    -1.11446
H      6.33578    -2.26064    -2.73595
H      5.10449    -2.40301    -3.97378
H      5.70967    -0.78641    -3.51850
C     -0.66804    -1.40597    -1.61647
C      0.14854    -2.61649    -1.93837
O     -0.94417    -0.57531    -2.46252
O     -1.03897    -1.30211    -0.35341
H     -1.75528    -0.61634    -0.26390
H      0.09427    -3.34551    -1.14106
H     -0.18863    -3.03933    -2.87970
H      1.18148    -2.30295    -2.06754
