 56
-1604.7927390485074
C      0.23507     1.72756    -2.21215
C     -0.96909     1.61136    -3.10340
O      0.63349     2.77707    -1.76402
O      0.81565     0.54901    -1.95412
H      1.67458     0.71715    -1.50613
H     -1.28454     0.57777    -3.19161
H     -1.76956     2.22075    -2.69381
H     -0.70826     2.00630    -4.08585
C     -1.86869    -2.48763    -1.72369
C     -0.87448    -2.03534    -0.69731
O     -2.18589    -1.89395    -2.72325
O     -2.41088    -3.69236    -1.42992
H     -3.00962    -3.89938    -2.15760
H     -0.26777    -2.87207    -0.36309
H     -0.25206    -1.26052    -1.12180
H     -1.39443    -1.63393     0.16798
C      0.47776    -1.30307     2.90801
C      1.33762    -2.13215     3.81096
O      0.78134    -1.03084     1.75344
O     -0.64614    -0.90399     3.46384
H     -2.73260     3.09718     0.82286
H      0.92297    -3.13870     3.85104
H      2.34567    -2.16202     3.41483
H      1.32078    -1.72395     4.81724
C      3.24303     1.82492     0.24127
C      3.15544     3.31392     0.23426
O      3.10705     1.12453    -0.74519
O      3.51131     1.31920     1.43469
H      3.54146     0.34248     1.38119
H      2.88726     3.66818     1.22352
H      4.13239     3.71586    -0.03631
H      2.42857     3.63105    -0.50494
C     -4.33799     0.70890    -0.88322
C     -5.21372     0.18200    -1.97900
O     -3.96580     1.85232    -0.78182
O     -3.98009    -0.25900    -0.01953
H     -3.38729     0.13921     0.63406
H     -4.58954    -0.36077    -2.68659
H     -5.95056    -0.50798    -1.57601
H     -5.69848     1.00986    -2.48617
C     -1.18937     1.76325     1.38670
C     -1.68868     3.13526     1.10970
O     -1.89546     0.82038     1.73018
O      0.12100     1.64038     1.24881
H      0.37268     0.70142     1.33477
H     -1.14627    -0.32031     2.84622
H     -1.57922     3.72596     2.01984
H     -1.07942     3.57636     0.32841
C      3.49351    -1.92804     0.03897
C      4.49629    -2.22973    -1.02735
O      3.75889    -1.41541     1.10975
O      2.26280    -2.27275    -0.30994
H      1.64572    -1.93599     0.36451
H      5.48298    -2.34042    -0.59008
H      4.20698    -3.12263    -1.57178
H      4.51130    -1.39231    -1.72358
