 72
-2063.3229627958704
C      3.99568    -2.64564    -0.19466
C      5.19720    -2.09778    -0.88320
O      3.73087    -2.41109     0.98219
O      3.23448    -3.40812    -0.94465
H      2.46640    -3.75038    -0.43169
H      5.22097    -2.43620    -1.91207
H      5.16336    -1.01122    -0.83017
H      6.08701    -2.42216    -0.34811
C     -1.97466     4.03403     0.42200
C     -3.17981     3.55244     1.15726
O     -0.84076     3.99120     0.89454
O     -2.21803     4.50174    -0.77511
H     -1.37891     4.82118    -1.20830
H     -3.81064     4.40429     1.40640
H     -3.74621     2.88449     0.51774
H     -2.86584     3.04245     2.06042
C      1.12161     5.44654    -1.34273
C      2.33264     5.93143    -2.07655
O      0.03036     5.29902    -1.87002
O      1.35063     5.19155    -0.06720
H      0.53863     4.82151     0.35002
H      3.16078     5.25152    -1.89289
H      2.11977     5.99467    -3.13629
H      2.61570     6.90979    -1.69422
C      0.92043    -4.05760     1.71514
C     -0.32389    -4.50810     2.39832
O      1.12065    -4.19972     0.51182
O      1.79781    -3.49096     2.51132
H      2.55978    -3.14141     1.99371
H     -0.95813    -5.02413     1.69161
H     -0.06365    -5.14535     3.24111
H     -0.84598    -3.63417     2.78160
C     -1.93336    -3.74141    -1.29649
C     -2.90058    -3.22040    -2.30880
O     -2.23816    -4.12741    -0.19028
O     -0.66769    -3.71732    -1.73296
H     -0.08959    -4.01137    -1.01270
H     -2.66066    -3.60958    -3.29575
H     -3.90892    -3.49425    -2.01831
H     -2.81510    -2.13492    -2.33507
C     -2.65378     0.80364    -2.08181
C     -2.78731     1.80510    -3.19525
O     -1.89446    -0.13757    -2.10837
O     -3.44485     1.08000    -1.05017
H     -3.43855     0.32543    -0.40976
H     -2.68916     2.80860    -2.79161
H     -2.02292     1.62091    -3.94366
H     -3.77407     1.71841    -3.64957
C      3.69298     1.13593     1.14855
C      3.46346     2.55187     1.58470
O      4.26481     0.80510     0.13834
O      3.16807     0.25881     2.01652
H      3.39007    -0.63810     1.72236
H      3.72080     3.22653     0.77622
H      2.41991     2.67544     1.85582
H      4.07136     2.76966     2.46206
C      0.14575     0.57598     0.14861
C      0.79063    -0.59115    -0.51846
O     -0.75271     0.51108     0.96271
O      0.64704     1.75379    -0.20858
H      0.17154     2.45644     0.26112
H      0.92889    -1.37823     0.21538
H      0.13620    -0.96147    -1.30245
H      1.74938    -0.30165    -0.93730
C     -3.25656    -1.65031     1.48998
C     -4.06049    -2.76500     2.07209
O     -3.64424    -0.96975     0.55715
O     -2.07512    -1.48954     2.05291
H     -1.58086    -0.76631     1.60179
H     -3.65762    -3.04433     3.03951
H     -5.10268    -2.46736     2.15081
H     -3.99454    -3.61643     1.39767
