 48
-1375.5388692818115
C      0.06696    -4.08038     1.44709
C     -0.73593    -4.84206     2.44917
O     -0.35959    -3.67413     0.38055
O      1.32472    -3.87986     1.82628
H      1.79204    -3.39358     1.12909
H     -1.48602    -4.17137     2.86350
H     -1.25536    -5.65509     1.94633
H     -0.08813    -5.21957     3.23147
C      2.43191    -2.33494    -1.46342
C      1.73841    -3.30467    -2.36369
O      2.86070    -2.66167    -0.35944
O      2.52955    -1.12069    -1.94568
H      2.89911    -0.49109    -1.27087
H      0.83471    -3.64865    -1.86589
H      1.49841    -2.83089    -3.30900
H      2.38583    -4.16403    -2.51800
C     -0.60637     2.33257    -1.10982
C      0.33299     1.17275    -0.98966
O     -1.43618     2.58617    -0.24677
O     -0.46402     3.02403    -2.21442
H     -1.11262     3.77608    -2.24967
H      0.49842     0.95184     0.05724
H     -0.14216     0.31005    -1.45031
H      1.27344     1.36354    -1.49318
C     -3.03825     5.27466    -1.43428
C     -4.00275     6.41896    -1.55139
O     -2.20879     5.03890    -2.29981
O     -3.17374     4.57082    -0.33235
H     -2.51654     3.82498    -0.29931
H     -4.65988     6.44920    -0.69027
H     -3.44041     7.34570    -1.63503
H     -4.57700     6.30371    -2.46725
C      3.75463     0.24801     1.07243
C      4.15383     1.27462     2.09079
O      3.39135     0.53899    -0.05735
O      3.83594    -0.99175     1.51486
H      3.53281    -1.62670     0.82489
H      5.17885     1.09173     2.40295
H      4.05945     2.26598     1.66522
H      3.51917     1.17689     2.96787
C     -2.46002    -1.29205     1.45301
C     -3.42571    -0.14044     1.50466
O     -2.18345    -1.99932     2.39153
O     -1.93022    -1.43465     0.23011
H     -1.35476    -2.22597     0.22696
H     -3.77179    -0.00992     2.52488
H     -2.94293     0.76552     1.14512
H     -4.27170    -0.35188     0.85150
