 64
-1834.0649536982703
C     -4.92716    -1.10602    -1.96891
C     -5.65779    -0.87437    -3.25669
O     -4.74950    -0.22761    -1.13889
O     -4.49180    -2.34058    -1.82605
H     -4.01590    -2.44305    -0.96558
H     -6.45743    -1.60271    -3.36449
H     -6.05303     0.13385    -3.28264
H     -4.96924    -1.02156    -4.08624
C      3.39009     3.86848     1.51796
C      2.95788     4.96301     2.43508
O      2.96196     3.75106     0.37158
O      4.25570     3.03271     2.03934
H      4.49683     2.31976     1.39095
H      1.96595     4.70491     2.80517
H      3.64967     5.05589     3.26502
H      2.87787     5.89062     1.87605
C     -0.04092    -0.39675    -2.26295
C     -1.51800    -0.57200    -2.45356
O      0.77125    -1.29239    -2.29970
O      0.28731     0.87104    -2.01875
H      1.22632     0.92969    -1.78617
H     -2.00320    -0.56198    -1.48171
H     -1.93153     0.24237    -3.04120
H     -1.71202    -1.52542    -2.92579
C      3.96663     0.70627    -0.55316
C      4.12934    -0.58797    -1.27393
O      4.74069     1.09069     0.30286
O      2.89603     1.41047    -0.91490
H      2.89673     2.29551    -0.46851
H      4.21516    -1.38441    -0.53870
H      3.28130    -0.76769    -1.92204
H      5.05746    -0.55590    -1.84345
C     -3.04384    -1.67259     1.30820
C     -2.38202    -1.94661     2.61570
O     -3.11537    -2.51721     0.41641
O     -3.55261    -0.47618     1.19281
H     -4.00729    -0.36177     0.31565
H     -1.91859    -1.03661     2.97286
H     -3.14400    -2.27494     3.32148
H     -1.64435    -2.72809     2.48170
C      1.11132    -0.63382     1.71774
C      1.88197     0.16048     2.73586
O     -0.05838    -0.45931     1.46164
O      1.86067    -1.54568     1.10451
H      1.26365    -2.19386     0.66653
H      2.64685     0.75021     2.23759
H      1.21320     0.82474     3.27134
H      2.38429    -0.50810     3.43299
C     -0.34609     3.13195     1.18531
C     -1.58579     2.31383     1.04270
O      0.22423     3.33497     2.23514
O      0.10198     3.60735     0.01723
H      0.97438     3.99970     0.16853
H     -2.24748     2.50165     1.88331
H     -2.08783     2.52529     0.10564
H     -1.30604     1.26249     1.07500
C     -0.07257    -3.90512    -0.81365
C      0.96268    -4.42290    -1.75838
O      0.16706    -3.40806     0.26998
O     -1.31425    -4.01436    -1.27364
H     -1.91299    -3.59786    -0.63316
H      1.28241    -3.58841    -2.38199
H      1.82284    -4.78872    -1.20549
H      0.54047    -5.19937    -2.38836
