 72
-2063.3315384287716
C      5.28629    -1.96549    -0.69312
C      6.77908    -1.99716    -0.53864
O      4.75566    -1.73806    -1.77219
O      4.62430    -2.18865     0.41728
H      3.64913    -2.18715     0.24182
H      7.19536    -2.73171    -1.22374
H      7.17680    -1.02402    -0.81920
H      7.04969    -2.23179     0.48419
C     -2.66566     3.36527    -1.45256
C     -2.06191     4.50482    -2.19502
O     -2.68673     2.21611    -1.89293
O     -3.17622     3.67042    -0.28592
H     -3.54428     2.86097     0.16045
H     -2.30267     4.42097    -3.25005
H     -2.39787     5.45133    -1.78478
H     -0.97975     4.41927    -2.11500
C     -3.68089     0.35061     0.62229
C     -4.06589    -0.83338     1.45894
O     -3.99494     1.49189     0.92512
O     -2.98060     0.05577    -0.44901
H     -2.85865     0.85828    -1.01804
H     -3.67199    -1.74734     1.03304
H     -3.68368    -0.70633     2.46885
H     -5.14969    -0.88793     1.52530
C     -3.78193    -4.18088     3.45251
C     -4.96505    -5.08998     3.60451
O     -3.13389    -4.13209     2.41585
O     -3.51801    -3.44500     4.50833
H     -2.70035    -2.89642     4.35904
H     -5.41520    -4.96274     4.58193
H     -5.68404    -4.86713     2.82021
H     -4.63996    -6.11824     3.46567
C      0.25051     1.92362    -4.03377
C      1.45409     1.27677    -4.65064
O     -0.04715     3.08412    -4.16778
O     -0.47184     1.06609    -3.29206
H     -1.23266     1.54669    -2.92510
H      1.51896     1.56834    -5.69613
H      2.33944     1.64975    -4.14141
H      1.41550     0.19820    -4.55316
C     -0.66392    -2.01558     3.08419
C      0.65004    -1.31010     3.02598
O     -1.38541    -1.98021     4.06769
O     -0.97714    -2.66195     1.97705
H     -1.77258    -3.23922     2.11858
H      1.02436    -1.28189     2.01303
H      0.54246    -0.30156     3.40786
H      1.35262    -1.83894     3.66602
C      3.39893     1.72978    -1.06153
C      4.65303     1.80227    -1.87045
O      2.36380     2.28114    -1.39202
O      3.50833     1.00212     0.02698
H      2.65580     1.01880     0.52293
H      5.51499     1.93537    -1.22082
H      4.77079     0.86118    -2.40474
H      4.58499     2.61687    -2.58399
C      0.32846     2.11304     1.08666
C     -0.65239     2.55113     2.13144
O      1.20239     1.28512     1.28921
O      0.14372     2.69183    -0.08366
H      0.93002     2.52680    -0.66642
H     -1.55290     1.94767     2.03858
H     -0.23525     2.40498     3.12240
H     -0.92099     3.59199     1.98328
C      1.52787    -1.55288    -1.04929
C      0.08014    -1.20232    -1.04129
O      2.06094    -2.16960    -0.14056
O      2.19314    -1.13057    -2.10856
H      3.14785    -1.38613    -2.03210
H     -0.43575    -1.83760    -0.33320
H      0.00728    -0.17221    -0.70035
H     -0.35488    -1.26483    -2.03168
