 64
-1834.062993453859
C     -1.91235    -2.62618    -2.20908
C     -2.36353    -3.28194    -3.46855
O     -0.97240    -3.03499    -1.53487
O     -2.59404    -1.55686    -1.86703
H     -2.22369    -1.17408    -1.02905
H     -3.44966    -3.31104    -3.50758
H     -2.00502    -2.68428    -4.30548
H     -1.93408    -4.27532    -3.53093
C      2.35794     3.29581     1.42151
C      2.79238     4.50462     2.17723
O      2.08353     2.23468     1.97832
O      2.27810     3.45296     0.12723
H      1.96807     2.61577    -0.30367
H      3.25717     5.22911     1.51629
H      1.91100     4.94520     2.63964
H      3.47155     4.21111     2.97297
C     -0.88233     0.36795    -3.78106
C     -2.06762     0.59750    -4.66926
O     -0.15856    -0.59721    -3.84324
O     -0.72999     1.33801    -2.87561
H      0.05137     1.13738    -2.33758
H     -2.91204     0.04794    -4.25254
H     -2.32132     1.65229    -4.71789
H     -1.86244     0.20397    -5.66078
C      1.67571     0.08020    -0.51746
C      1.69916    -1.15848    -1.34288
O      1.45047     1.19606    -0.98236
O      1.89369    -0.10841     0.76282
H      1.93083     0.75815     1.23866
H      2.42650    -1.86413    -0.95769
H      0.71507    -1.62388    -1.30469
H      1.89408    -0.90087    -2.37589
C     -1.10893    -1.43522     1.29411
C     -1.03000    -0.97159     2.71253
O     -1.48708    -0.73301     0.36786
O     -0.71309    -2.67948     1.11823
H     -0.82150    -2.92416     0.17452
H      0.01848    -0.79904     2.95132
H     -1.57596    -0.04121     2.82134
H     -1.41443    -1.73733     3.38366
C     -1.65158     3.00151     1.53786
C     -1.99659     2.74897     0.10113
O     -2.11584     2.38147     2.46560
O     -0.75703     3.99062     1.67973
H     -0.56712     4.09489     2.63267
H     -2.03740     1.67556    -0.06458
H     -2.97893     3.17058    -0.10443
H     -1.26175     3.20368    -0.55250
C     -0.10429     2.79107     4.85551
C     -1.03372     2.44757     5.97549
O     -0.02406     3.88511     4.33285
O      0.63046     1.75702     4.46067
H      1.14503     2.03137     3.68443
H     -0.63449     1.62333     6.55628
H     -1.20608     3.32346     6.59190
H     -1.98100     2.14218     5.53265
C      1.40916    -5.38820    -2.80774
C      2.70473    -6.13203    -3.00232
O      0.36849    -5.66900    -3.34479
O      1.55650    -4.35849    -1.95355
H      0.70704    -3.89310    -1.87556
H      3.44902    -5.46752    -3.43812
H      3.08661    -6.46795    -2.04007
H      2.53814    -6.97981    -3.65683
