 32
-917.0158568128383
C      1.65092    -2.40971    -1.80953
C      2.09684    -3.81048    -2.13713
O      2.31212    -1.41873    -1.99647
O      0.42342    -2.39877    -1.26891
H      0.14195    -1.48324    -1.10385
H      3.10542    -3.78649    -2.53366
H      2.05729    -4.42686    -1.24109
H      1.41960    -4.24899    -2.86770
C     -0.57069     1.28215    -1.15838
C      0.53173     1.67338    -2.07853
O     -0.68828     0.15121    -0.69137
O     -1.40745     2.24618    -0.88716
H     -2.10269     1.94355    -0.24649
H      0.13236     2.27219    -2.89358
H      1.22982     2.28988    -1.51585
H      1.03675     0.78718    -2.44332
C      2.21587     1.15648     1.69869
C      2.08688    -0.33489     1.63383
O      1.38141     1.95016     1.34848
O      3.41155     1.54408     2.19251
H      3.40601     2.50914     2.18537
H      1.03676    -0.58865     1.55039
H      2.60423    -0.69443     0.74561
H      2.52975    -0.80798     2.50809
C     -3.47777     0.28693     1.18957
C     -4.60835    -0.12681     2.08741
O     -3.31805     1.43454     0.81039
O     -2.68344    -0.71247     0.85563
H     -1.93960    -0.40031     0.28561
H     -5.22161     0.73436     2.32209
H     -5.20138    -0.89061     1.59057
H     -4.20327    -0.56164     2.99786
