 48
-1375.5495653860723
C     -2.25487     1.18066    -4.07738
C     -2.02165     1.33247    -5.55134
O     -2.91759     0.27327    -3.59991
O     -1.66712     2.11315    -3.35249
H     -1.83627     1.97246    -2.38958
H     -0.95287     1.37729    -5.74639
H     -2.46883     0.49989    -6.08013
H     -2.45731     2.26975    -5.89049
C      1.14683    -1.28754    -0.90729
C     -0.10331    -1.21012    -1.72261
O      1.64326    -2.34869    -0.56236
O      1.66621    -0.11615    -0.60016
H      2.45626    -0.24030    -0.01644
H     -0.32255    -0.18108    -1.97933
H      0.00740    -1.81057    -2.62064
H     -0.91518    -1.62471    -1.13241
C     -2.90227     0.84081    -0.30211
C     -3.25051     0.80533     1.14304
O     -2.09410     1.63883    -0.77828
O     -3.53010    -0.03823    -1.03238
H     -3.32007     0.08330    -1.99633
H     -4.25652     1.20389     1.27132
H     -3.23780    -0.22574     1.47775
H     -2.53118     1.39541     1.69708
C      0.68442     2.28324     1.33039
C      2.04461     2.75536     1.73339
O      0.03490     1.48211     1.97723
O      0.24091     2.82498     0.20860
H     -0.60391     2.41080    -0.03776
H      2.43071     3.46288     1.00899
H      1.98150     3.22016     2.71597
H      2.70640     1.89626     1.81752
C      3.86187    -1.46324     1.74547
C      4.68278    -1.46270     3.00272
O      3.70158    -0.45761     1.07180
O      3.35375    -2.63891     1.44421
H      2.75777    -2.56471     0.65706
H      4.56690    -2.39746     3.53918
H      5.72749    -1.31461     2.73672
H      4.37567    -0.62371     3.62145
C     -0.26665    -1.83237     2.00739
C     -0.12108    -3.25781     2.44698
O     -1.12993    -1.44462     1.25133
O      0.66949    -1.03283     2.51381
H      0.44684    -0.10649     2.27360
H      0.02730    -3.31736     3.52319
H     -0.99997    -3.82257     2.15488
H      0.75505    -3.68668     1.96193
