 32
-917.0173765433905
C      0.93059    -1.48385    -2.33088
C      1.98429    -2.53268    -2.54835
O      1.14520    -0.37609    -1.89597
O     -0.28401    -1.91905    -2.68239
H     -0.93875    -1.23873    -2.43941
H      1.80473    -3.37327    -1.87979
H      1.93024    -2.90647    -3.56855
H      2.96415    -2.11259    -2.35166
C     -1.56282     1.17947    -1.67840
C     -1.17940     1.70285    -3.02614
O     -1.92814     0.01875    -1.50666
O     -1.45880     2.04777    -0.71020
H     -1.65985     1.62994     0.17406
H     -0.18512     1.32028    -3.25323
H     -1.87155     1.32145    -3.77091
H     -1.16278     2.78771    -3.02486
C      2.07405     0.66018     2.12827
C      1.68021     1.18393     0.78428
O      1.50046    -0.20859     2.73864
O      3.16939     1.27092     2.63017
H      3.33632     0.86340     3.48847
H      0.96385     0.50869     0.33732
H      1.21009     2.15869     0.89589
H      2.53110     1.28323     0.11917
C     -1.67698    -0.27305     1.89158
C     -1.62520    -0.81652     3.28015
O     -1.79742     0.91506     1.63521
O     -1.57004    -1.19770     0.94956
H     -1.67833    -0.79464     0.05928
H     -2.11337    -1.78570     3.31432
H     -0.57926    -0.94349     3.55275
H     -2.08957    -0.11476     3.96445
