 32
-917.0190666436974
C      1.86007    -0.20316     1.74325
C      0.85800    -1.30059     1.95002
O      3.04450    -0.34224     1.59117
O      1.27424     1.01588     1.72032
H      1.94583     1.64139     1.42644
H      0.07131    -0.99532     2.63398
H      0.40631    -1.54381     0.98603
H      1.36247    -2.18629     2.32513
C     -1.82030     1.84063     1.42981
C     -1.80231     2.86089     2.52514
O     -2.26071     0.71178     1.58345
O     -1.30533     2.27078     0.29705
H     -1.27553     1.54048    -0.36486
H     -0.79832     2.89030     2.94507
H     -2.03032     3.84362     2.12257
H     -2.50605     2.58173     3.30194
C      1.98877    -0.93737    -1.76747
C      3.45530    -1.14863    -1.98881
O      1.16845    -1.82182    -1.69675
O      1.68344     0.35883    -1.62138
H      0.72186     0.42351    -1.51334
H      3.83819    -0.41646    -2.69529
H      3.97378    -1.01561    -1.04135
H      3.62366    -2.15694    -2.35171
C     -1.86147    -0.79604    -1.35811
C     -1.93167    -1.79519    -2.46552
O     -1.20069     0.23896    -1.43885
O     -2.55785    -1.10867    -0.29464
H     -2.47300    -0.41331     0.41567
H     -0.93406    -2.20028    -2.61965
H     -2.62943    -2.58389    -2.21066
H     -2.23125    -1.29063    -3.38116
