 32
-917.0187830860987
C      1.01156    -1.06448    -1.93916
C      2.16850    -2.01891    -2.00980
O      1.10453     0.13503    -2.03858
O     -0.14317    -1.70644    -1.72374
H     -0.85349    -1.05257    -1.61349
H      2.36659    -2.39371    -1.00732
H      1.91905    -2.86483    -2.64598
H      3.04585    -1.50280    -2.38424
C     -1.73713     1.47660    -1.48970
C     -1.61066     2.24456    -2.76448
O     -2.20179     0.34131    -1.44072
O     -1.29963     2.11438    -0.43435
H     -1.41452     1.57151     0.39372
H     -0.58042     2.16043    -3.10392
H     -2.27143     1.82013    -3.51111
H     -1.82821     3.29372    -2.59221
C      2.30348     0.07774     1.60188
C      1.94713     1.47425     1.20379
O      1.57561    -0.88234     1.55453
O      3.58261    -0.02550     2.02816
H      3.71676    -0.95433     2.24895
H      2.07268     1.57527     0.12748
H      0.90014     1.65274     1.43185
H      2.58284     2.19822     1.70867
C     -1.86927    -0.47169     1.83830
C     -1.68774    -1.28871     3.07569
O     -1.56970     0.71000     1.76350
O     -2.37724    -1.15158     0.82825
H     -2.44358    -0.58061     0.03121
H     -2.47327    -2.03344     3.15101
H     -0.72894    -1.79706     2.99532
H     -1.67088    -0.63757     3.94177
