 72
-2063.3211205902103
C      2.89648     1.08894     1.59055
C      2.49066     2.45058     1.12426
O      2.33027     0.52928     2.51766
O      3.90294     0.56504     0.93182
H      4.18226    -0.29044     1.34799
H      2.96515     2.68529     0.17903
H      1.40944     2.49218     1.02851
H      2.78651     3.17428     1.87978
C      0.34693     5.37579    -0.26705
C      0.29530     6.64590     0.52217
O     -0.47626     4.47621    -0.13975
O      1.34610     5.30132    -1.10414
H      1.32249     4.42455    -1.57129
H     -0.36093     6.52407     1.37617
H      1.29557     6.92627     0.83989
H     -0.08783     7.43950    -0.11692
C      0.36504     2.09664    -2.31137
C      0.40350     1.11785    -3.43241
O      1.26057     2.89647    -2.08508
O     -0.71696     2.00488    -1.56325
H     -0.65279     2.59432    -0.78961
H     -0.60421     0.90548    -3.76701
H      1.02361     1.49796    -4.23957
H      0.83910     0.19310    -3.06213
C      0.69238    -2.52633    -1.00749
C      1.64596    -1.68162    -0.23966
O      0.31722    -3.62152    -0.62214
O      0.27832    -1.99323    -2.14263
H     -0.38885    -2.57839    -2.56982
H      2.22497    -2.31274     0.42238
H      2.29185    -1.13391    -0.91483
H      1.07731    -0.97575     0.35618
C     -2.20457    -1.19788     1.69107
C     -2.34753    -2.69147     1.68457
O     -3.01787    -0.44954     2.17495
O     -1.08203    -0.77387     1.08787
H     -1.02623     0.20040     1.18141
H     -1.42679    -3.17233     1.37759
H     -2.64577    -3.01927     2.67936
H     -3.14771    -2.94727     0.99228
C     -1.59497    -4.87624    -2.99052
C     -2.32569    -5.82758    -3.88968
O     -1.61330    -3.66264    -3.17000
O     -0.94175    -5.45019    -2.01084
H     -0.46809    -4.76968    -1.45676
H     -3.38313    -5.57438    -3.88061
H     -1.96943    -5.69279    -4.90772
H     -2.17614    -6.84920    -3.56232
C     -1.43494     2.64087     2.31239
C     -1.84458     2.10899     3.64926
O     -0.96939     1.95734     1.41212
O     -1.60145     3.94924     2.19682
H     -1.25261     4.23533     1.32599
H     -2.24508     2.90862     4.26276
H     -2.57645     1.31919     3.50535
H     -0.97426     1.66247     4.12500
C     -3.24205    -0.39586    -2.20274
C     -3.59283     0.69062    -1.23244
O     -3.04248    -0.24571    -3.38149
O     -3.16932    -1.60664    -1.60739
H     -2.87458    -2.24285    -2.27515
H     -2.86213     0.72120    -0.42919
H     -3.60969     1.64876    -1.73896
H     -4.55917     0.48598    -0.77600
C      3.99913    -2.29532     2.98635
C      4.43082    -3.62914     3.52117
O      4.56415    -1.76589     2.03977
O      2.96923    -1.76798     3.60736
H      2.72819    -0.88700     3.20935
H      3.87035    -3.88112     4.41364
H      4.26520    -4.37839     2.75006
H      5.49747    -3.60367     3.72627
