 56
-1604.8125030792924
C      1.69911     3.45913    -0.92798
C      0.98017     4.61556    -1.55645
O      2.57636     3.56466    -0.10602
O      1.24364     2.27654    -1.36184
H      1.71623     1.57620    -0.88922
H      0.59094     4.34754    -2.53503
H      0.15109     4.89872    -0.90778
H      1.66013     5.45903    -1.63388
C     -3.98961    -4.21699    -1.08125
C     -4.76028    -5.46704    -0.77433
O     -3.36763    -3.61439    -0.21607
O     -4.02389    -3.84832    -2.33996
H     -3.51913    -2.99940    -2.47468
H     -5.49355    -5.25400    -0.00050
H     -5.24512    -5.84135    -1.66811
H     -4.07215    -6.20920    -0.37580
C     -0.03212     0.82309     2.12152
C     -0.31361    -0.63942     2.01368
O      0.82822     1.28025     2.85745
O     -0.77646     1.57006     1.33513
H      0.38915     6.62812     2.11531
H     -0.05883    -0.97851     1.01431
H      0.27826    -1.17982     2.74100
H     -1.37016    -0.83947     2.14554
C      0.76245    -3.06460    -1.04083
C     -0.12758    -4.08701    -1.66775
O      1.42368    -3.29326    -0.04123
O      0.75904    -1.90037    -1.65522
H      1.36309    -1.27032    -1.19053
H      0.48026    -4.89665    -2.06502
H     -0.77190    -4.49844    -0.89566
H     -0.71761    -3.63823    -2.45719
C     -2.29782    -0.88121    -1.75195
C     -1.88176     0.53025    -2.00151
O     -2.67157    -1.62946    -2.64178
O     -2.20453    -1.26312    -0.49220
H     -2.61540    -2.15936    -0.37466
H     -2.00028     1.12886    -1.10673
H     -0.83184     0.51957    -2.28483
H     -2.45874     0.93757    -2.82857
C      0.74074     4.54825     2.36538
C      1.23103     5.95451     2.24555
O     -0.18908     4.12350     1.69221
O      1.39269     3.82321     3.24074
H      1.14466     2.86604     3.15780
H     -0.57108     2.53262     1.47219
H      1.82193     6.22455     3.11350
H      1.85600     6.01302     1.35428
C      3.06446    -0.51019     0.63857
C      3.99174     0.47538     1.26369
O      2.32641    -0.23452    -0.30658
O      3.07760    -1.68530     1.20686
H      2.46015    -2.31081     0.73745
H      4.05485     1.36230     0.64616
H      3.59242     0.73715     2.24198
H      4.97071     0.02423     1.41176
