 48
-1375.5405367445496
C      1.10394     0.53305     2.69830
C      1.95958    -0.26043     3.62924
O      1.43412     1.61138     2.23411
O     -0.04173    -0.05414     2.39337
H     -0.56007     0.51428     1.79205
H      2.56517     0.40989     4.23018
H      1.34087    -0.89987     4.24957
H      2.62032    -0.88273     3.02752
C      2.81270    -4.36478    -0.33539
C      2.85276    -5.85334    -0.14592
O      2.39940    -3.85652    -1.36871
O      3.25326    -3.67778     0.69324
H      3.20048    -2.69997     0.51515
H      3.30553    -6.10154     0.80685
H      1.83789    -6.24087    -0.19520
H      3.41190    -6.29936    -0.96452
C     -0.92178     2.61087    -0.00496
C     -1.58844     3.40901    -1.06328
O     -1.40702     1.59271     0.50215
O      0.25732     3.05445     0.34869
H      0.66364     2.50353     1.06953
H     -2.65055     3.48906    -0.85069
H     -1.11606     4.38256    -1.13731
H     -1.46311     2.86310    -1.99925
C     -5.08783     2.28704     0.71733
C     -6.49253     2.17246     1.23448
O     -4.73477     3.07504    -0.12519
O     -4.25627     1.40838     1.29683
H     -3.37097     1.52845     0.92189
H     -6.55329     1.45580     2.04601
H     -6.82424     3.15470     1.56248
H     -7.13980     1.86900     0.41416
C      2.80252    -0.58121    -0.85362
C      2.85689     0.89388    -1.09237
O      3.12023    -1.09052     0.21118
O      2.37705    -1.26651    -1.89128
H      2.36710    -2.24165    -1.69713
H      3.04493     1.39743    -0.15152
H      3.65873     1.11295    -1.79581
H      1.91743     1.22144    -1.52634
C     -0.69893    -0.31579    -2.45178
C     -0.64689    -1.43444    -3.44561
O     -0.57837     0.85580    -2.71679
O     -0.88726    -0.75736    -1.19787
H     -1.00245     0.01258    -0.62215
H     -1.51368    -2.08081    -3.32564
H     -0.61432    -1.02943    -4.45129
H      0.24314    -2.03306    -3.25924
