 48
-1375.5476215318488
C     -1.01934    -0.44253     1.10218
C     -0.80463     1.02882     1.16282
O     -1.15297    -1.03892     0.04426
O     -1.01344    -1.04601     2.26974
H     -1.15559    -2.02012     2.15448
H      0.26115     1.20380     1.29514
H     -1.10668     1.47300     0.22456
H     -1.33203     1.49055     1.98944
C      1.49678    -0.61811    -1.89521
C      0.88119     0.02008    -3.09664
O      1.98249     0.03425    -0.97078
O      1.47151    -1.92065    -1.90594
H      1.77175    -2.29389    -1.03437
H     -0.15293    -0.30724    -3.17814
H      0.92122     1.09777    -3.00315
H      1.40536    -0.31006    -3.99210
C      1.27015     3.53959    -0.77185
C      1.23567     4.93893    -0.24885
O      0.62641     3.14956    -1.73044
O      2.07396     2.74200    -0.08286
H      2.04032     1.84361    -0.45568
H      1.27224     5.63495    -1.08261
H      0.28652     5.08172     0.26513
H      2.06174     5.10381     0.43432
C     -2.46704     3.97052    -0.78032
C     -3.93887     4.28359    -0.78376
O     -1.80160     3.92156     0.22901
O     -1.99062     3.74520    -2.00472
H     -1.03220     3.54221    -1.95173
H     -4.29664     4.43475    -1.79609
H     -4.47186     3.45360    -0.32265
H     -4.11796     5.16536    -0.17330
C      2.12154    -2.27379     1.48738
C      2.13639    -2.91759     2.83348
O      2.09391    -2.90299     0.44394
O      2.11518    -0.95542     1.53527
H      2.11378    -0.58027     0.62565
H      2.44913    -3.95125     2.73894
H      2.78915    -2.37407     3.51014
H      1.12300    -2.88647     3.22991
C     -1.38665    -4.24524     0.87253
C     -1.42656    -5.74161     0.76919
O     -1.26015    -3.66181     1.93989
O     -1.47424    -3.63186    -0.28451
H     -1.41272    -2.65146    -0.16495
H     -0.53447    -6.08032     0.24586
H     -1.46019    -6.17788     1.76075
H     -2.29145    -6.05050     0.18744
