 64
-1834.066238049556
C     -3.20286    -0.20303    -0.76293
C     -2.85304     1.09790    -1.40552
O     -3.61223    -0.27842     0.38330
O     -3.01460    -1.26000    -1.52907
H     -3.24415    -2.08264    -1.03254
H     -3.54174     1.86861    -1.07786
H     -1.85757     1.37160    -1.06182
H     -2.84241     1.00288    -2.48397
C      2.52216     3.03316     1.73074
C      1.94890     4.17207     2.51054
O      2.81382     3.12103     0.54368
O      2.67497     1.93332     2.42053
H      3.06262     1.21721     1.85111
H      1.89107     5.04632     1.87182
H      0.95358     3.89384     2.84520
H      2.56459     4.37484     3.38491
C      0.66322    -1.15155    -2.75508
C     -0.15319    -2.31786    -3.21634
O      1.73000    -1.22968    -2.19831
O      0.07150     0.02430    -3.03384
H      0.57022     0.73995    -2.60705
H      0.06849    -3.17523    -2.59159
H     -1.20664    -2.06804    -3.15786
H      0.10479    -2.54254    -4.25175
C      3.96503     0.10993    -0.40715
C      4.71588    -1.01192    -1.04082
O      3.62982     0.12547     0.76587
O      3.69350     1.09713    -1.24188
H      3.14371     1.76818    -0.79951
H      4.05417    -1.50580    -1.74855
H      5.56320    -0.60945    -1.58978
H      5.04097    -1.71444    -0.28212
C     -3.99367    -3.47876     1.04296
C     -4.19436    -4.74451     1.81146
O     -3.47482    -3.45917    -0.07310
O     -4.41188    -2.40713     1.65196
H     -4.14330    -1.58150     1.16097
H     -3.44536    -4.77760     2.60045
H     -5.17371    -4.74435     2.28045
H     -4.07056    -5.59906     1.15733
C     -0.44780     1.45733     1.49196
C     -0.93889     0.81312     2.75200
O     -0.55966     2.62688     1.21828
O      0.15403     0.58520     0.67365
H      0.57257     1.05889    -0.06711
H     -1.39687    -0.14604     2.52645
H     -0.08885     0.63870     3.41270
H     -1.64958     1.47207     3.24206
C      0.53145     3.44899    -1.68422
C     -0.61761     3.86526    -2.55033
O      0.89098     2.28572    -1.56156
O      1.11217     4.44751    -1.06095
H      1.77964     4.08845    -0.43643
H     -0.48681     4.88284    -2.90349
H     -0.71699     3.17053    -3.37663
H     -1.52764     3.82042    -1.95416
C     -0.19632    -3.06999     0.98424
C      1.28875    -2.87379     1.03174
O     -0.94096    -2.90131     1.91748
O     -0.62627    -3.45510    -0.23283
H     -1.59481    -3.52007    -0.19878
H      1.59433    -2.66232     2.05070
H      1.79824    -3.76024     0.65753
H      1.56521    -2.03823     0.39050
