 48
-1375.545761539528
C      0.19557     0.04025     1.69731
C      0.99339    -0.67497     2.74658
O     -0.11178     1.20645     1.73989
O     -0.15400    -0.76492     0.68710
H     -0.58618    -0.23166    -0.00593
H      1.84742    -0.06397     3.02483
H      0.37428    -0.81745     3.63155
H      1.32697    -1.63704     2.37486
C      5.07469    -0.01948     0.99633
C      6.08338     0.80081     1.74792
O      4.72772     0.26797    -0.14018
O      4.60201    -1.04859     1.66757
H      3.98477    -1.58501     1.10051
H      6.28956     0.35975     2.71611
H      6.99231     0.86957     1.15605
H      5.69525     1.80975     1.86519
C     -0.40913     1.54973    -2.13646
C      0.76853     1.77010    -3.03966
O     -0.75959     0.43708    -1.77103
O     -1.02258     2.65115    -1.75827
H     -1.76738     2.40469    -1.15657
H      0.74845     2.76865    -3.46342
H      1.68024     1.63157    -2.46276
H      0.75087     1.01285    -3.81741
C     -3.08094     1.95783     0.93290
C     -2.57526     3.21686     1.54595
O     -2.92300     1.66528    -0.24597
O     -3.70426     1.16497     1.77341
H     -3.87717     0.30929     1.31528
H     -2.30115     3.91902     0.76564
H     -3.32260     3.64193     2.21147
H     -1.69037     2.96593     2.12831
C      2.39659    -2.00133    -0.85307
C      1.27828    -2.72785    -1.52759
O      2.96809    -2.43512     0.13607
O      2.70626    -0.85652    -1.42642
H      3.47289    -0.42372    -0.96078
H      0.62759    -3.16425    -0.77615
H      0.72708    -2.04148    -2.15999
H      1.70022    -3.53218    -2.12930
C     -3.92598    -1.44813    -0.79235
C     -4.77715    -2.59487    -1.24949
O     -3.84696    -1.09158     0.36942
O     -3.27880    -0.87360    -1.78757
H     -2.66062    -0.18380    -1.47923
H     -5.54639    -2.22268    -1.92270
H     -4.16309    -3.29955    -1.80498
H     -5.23465    -3.08421    -0.39780
