 72
-2063.3266351901684
C      2.54498    -0.08113    -0.11640
C      2.79218     0.20154     1.33439
O      1.73603    -0.87429    -0.53319
O      3.31407     0.66164    -0.92557
H      3.16899     0.36813    -1.84040
H      2.21536     1.07983     1.61562
H      2.45412    -0.63859     1.93106
H      3.84723     0.40496     1.50804
C     -0.60811     1.93148    -1.17177
C      0.20608     1.95016    -2.42243
O     -1.81167     1.67894    -1.17488
O      0.06036     2.16426    -0.07316
H     -0.50979     2.02322     0.72524
H     -0.40172     2.26134    -3.26326
H      1.07224     2.59043    -2.30901
H      0.53608     0.92610    -2.59838
C     -2.70796     1.51586     2.03196
C     -3.47327     1.28024     3.28621
O     -1.49173     1.69195     2.00138
O     -3.43574     1.49511     0.94432
H     -2.86406     1.59678     0.14731
H     -4.37685     1.88604     3.29169
H     -3.76794     0.23200     3.31079
H     -2.84969     1.49447     4.14425
C     -1.45457    -0.95000    -3.55455
C     -1.71366    -1.84514    -4.73009
O     -0.57635    -1.14106    -2.74599
O     -2.28460     0.09840    -3.51559
H     -2.09117     0.62587    -2.71968
H     -2.68354    -1.63465    -5.17012
H     -0.93105    -1.67176    -5.46615
H     -1.65266    -2.88217    -4.41377
C      0.18485     1.05833     5.24573
C      1.34034     0.75825     6.15140
O     -0.95988     1.17684     5.61627
O      0.54846     1.15610     3.96374
H     -0.24345     1.29938     3.42463
H      1.17271     1.22841     7.11631
H      1.38743    -0.32108     6.29720
H      2.27578     1.09843     5.71695
C     -1.49972    -1.97078     5.70613
C     -1.60133    -1.87219     7.19451
O     -0.43732    -2.13609     5.12445
O     -2.65248    -1.84748     5.08610
H     -2.52823    -1.94622     4.10905
H     -1.43916    -0.83187     7.47421
H     -2.59076    -2.17453     7.52187
H     -0.83068    -2.48203     7.65549
C      2.30940     1.82630    -6.04666
C      2.08738     3.09421    -6.81717
O      2.09377     0.72315    -6.52561
O      2.72987     2.01503    -4.81267
H      2.85204     1.14703    -4.35518
H      1.03419     3.35759    -6.74274
H      2.68346     3.89898    -6.40103
H      2.32175     2.93080    -7.86373
C      2.41571    -1.37770    -3.96542
C      2.26335    -2.56048    -3.07639
O      2.93533    -0.32331    -3.60338
O      1.94979    -1.54157    -5.17788
H      2.03658    -0.70071    -5.70676
H      1.26856    -2.51186    -2.63201
H      2.36260    -3.47715    -3.64920
H      2.98571    -2.49967    -2.27216
C     -1.20555    -1.96371     1.87763
C     -1.14508    -1.84638     0.38957
O     -2.26568    -2.03782     2.48424
O     -0.03910    -1.95486     2.48590
H     -0.15538    -2.03818     3.46659
H     -1.95257    -2.41565    -0.05503
H     -1.28609    -0.80270     0.12160
H     -0.18774    -2.15667    -0.00501
