 56
-1604.8082066083814
C      3.10780     2.97970     0.03971
C      2.90714     4.45111     0.23315
O      4.15581     2.40203     0.20122
O      1.98083     2.35324    -0.32690
H      2.20252     1.42633    -0.50647
H      3.86417     4.92347     0.42896
H      2.44577     4.88838    -0.65002
H      2.24043     4.61747     1.07759
C     -5.20200    -3.89577    -2.59232
C     -6.01437    -5.11574    -2.91490
O     -5.38170    -2.83037    -3.16324
O     -4.29732    -4.08393    -1.65716
H     -3.78625    -3.24804    -1.48608
H     -5.84640    -5.38331    -3.95534
H     -5.73901    -5.93762    -2.26443
H     -7.06921    -4.87695    -2.80706
C      1.59686     1.31989     2.79342
C      2.85166     0.56294     3.08477
O      1.48828     2.52077     2.98203
O      0.62561     0.57893     2.30497
H     -2.99863     3.70339     0.26346
H      3.57141     0.78246     2.29573
H      3.27039     0.90695     4.02713
H      2.65575    -0.50264     3.11810
C      0.85998    -2.23179     0.78985
C     -0.39295    -2.76564     1.40190
O      1.97399    -2.47981     1.22376
O      0.65221    -1.46064    -0.26106
H      1.50030    -1.05931    -0.55694
H     -0.18866    -3.72775     1.86425
H     -0.71538    -2.06612     2.17217
H     -1.17022    -2.84033     0.64775
C     -3.07869    -0.79790    -1.79776
C     -2.21093     0.38926    -1.51185
O     -2.93977    -1.85742    -1.20123
O     -3.98195    -0.60498    -2.72991
H     -4.50869    -1.43380    -2.88850
H     -1.19211     0.15396    -1.80778
H     -2.56728     1.25678    -2.05863
H     -2.20652     0.58279    -0.44343
C     -1.40994     3.35911     1.62312
C     -2.59414     4.16018     1.16190
O     -1.42621     2.13777     1.67885
O     -0.36116     4.08463     1.94616
H      0.34630     3.50995     2.34017
H     -0.14577     1.14254     2.04185
H     -3.36394     4.12101     1.92940
H     -2.30492     5.18787     0.97506
C      4.10667    -0.72565    -0.59906
C      5.35823    -0.19648    -1.21795
O      2.98672    -0.32513    -0.91461
O      4.29519    -1.63882     0.32056
H      3.42893    -1.98387     0.66921
H      5.46242     0.84493    -0.91968
H      6.21180    -0.77385    -0.88382
H      5.26391    -0.22510    -2.30073
