 48
-1375.5382775445828
C      0.68429     1.59454     2.32614
C     -0.45461     2.54639     2.54902
O      1.51637     1.29987     3.14454
O      0.67803     1.08905     1.07757
H      1.39693     0.44219     0.99684
H     -0.42296     2.92047     3.56652
H     -0.39421     3.37545     1.84988
H     -1.39885     2.04044     2.36868
C      2.46453    -3.63333    -1.78215
C      1.87508    -4.61335    -2.74192
O      1.82447    -2.67491    -1.35334
O      3.69757    -3.87713    -1.43511
H      4.01997    -3.21646    -0.76111
H      1.17700    -5.24415    -2.19459
H      1.30170    -4.07337    -3.48982
H      2.65086    -5.21800    -3.19924
C     -1.77246     2.02011    -0.75066
C     -1.03928     1.04554    -1.61348
O     -2.71369     1.70289    -0.03911
O     -1.31244     3.25070    -0.83796
H     -1.84367     3.86579    -0.26937
H     -1.20926     1.30119    -2.65853
H      0.02431     1.12108    -1.41308
H     -1.39404     0.04515    -1.40710
C     -3.61591     4.51471     1.49659
C     -4.32525     5.48669     2.39379
O     -2.68870     4.85818     0.77807
O     -4.07003     3.28366     1.56672
H     -3.58100     2.68260     0.94102
H     -4.75748     6.27719     1.78545
H     -5.09450     4.97939     2.96343
H     -3.59702     5.94658     3.05695
C      3.93610    -1.15402     0.78210
C      4.51455    -0.16015     1.72792
O      4.54610    -2.11868     0.36316
O      2.68669    -0.88479     0.41636
H      2.35793    -1.56216    -0.22589
H      5.39384    -0.58060     2.20421
H      4.80786     0.72093     1.15812
H      3.76900     0.13933     2.45641
C     -1.70519    -3.58223    -1.61507
C     -3.15975    -3.38698    -1.93750
O     -1.24446    -4.51552    -1.00993
O     -0.95058    -2.57800    -2.10156
H     -0.02718    -2.74729    -1.84725
H     -3.29750    -3.33461    -3.01651
H     -3.73351    -4.21111    -1.52886
H     -3.50883    -2.44600    -1.51524
