 48
-1375.5424017347752
C      0.13098     3.14939    -1.49534
C     -0.93517     4.07582    -2.00269
O      1.22799     3.49329    -1.13527
O     -0.27802     1.86997    -1.46632
H      0.45675     1.32822    -1.14426
H     -1.56845     3.57377    -2.72802
H     -1.55227     4.39051    -1.16292
H     -0.47259     4.95723    -2.43708
C      1.98863    -3.48552    -0.97585
C      1.54278    -4.87900    -1.26578
O      1.60753    -2.51616    -1.63419
O      2.80177    -3.37154     0.04301
H      3.10466    -2.43203     0.16712
H      1.64448    -5.07607    -2.32962
H      2.11539    -5.58709    -0.67834
H      0.48593    -4.94530    -1.01329
C     -0.47214    -0.17922     2.00003
C      0.36256    -1.41799     2.05488
O      0.00460     0.94390     2.06896
O     -1.75482    -0.41126     1.83290
H     -2.27140     0.43943     1.84335
H      1.34714    -1.18569     2.43741
H     -0.12137    -2.18908     2.64280
H      0.45786    -1.80555     1.04609
C     -2.57187     2.97727     1.71080
C     -3.41110     4.21921     1.65823
O     -3.06274     1.87082     1.87165
O     -1.28335     3.19214     1.56140
H     -0.76817     2.36160     1.73250
H     -4.24994     4.05396     0.98744
H     -3.81235     4.40557     2.65211
H     -2.82029     5.06818     1.33553
C      2.86934     0.11774    -0.00943
C      3.11989     1.50958     0.44668
O      3.49458    -0.84681     0.38998
O      1.88343    -0.00154    -0.89802
H      1.84649    -0.92995    -1.23924
H      2.19927     1.92821     0.84663
H      3.90087     1.51149     1.19960
H      3.40260     2.13016    -0.39966
C     -1.80351    -2.57706    -0.93836
C     -3.26693    -2.28870    -0.79406
O     -1.22331    -3.49982    -0.41582
O     -1.18877    -1.66890    -1.70676
H     -0.25465    -1.92030    -1.77425
H     -3.39255    -1.39021    -0.19211
H     -3.71228    -2.10327    -1.76900
H     -3.75405    -3.12380    -0.30219
