 48
-1375.542103881699
C     -1.68587     0.55763     0.15346
C     -2.85383     1.47282    -0.06632
O     -1.03743     0.05633    -0.73330
O     -1.42587     0.37493     1.45529
H     -0.63166    -0.17533     1.53401
H     -2.48357     2.48921    -0.19032
H     -3.37505     1.18857    -0.97627
H     -3.52778     1.44507     0.78462
C      0.84145    -2.44774    -1.57745
C     -0.10205    -2.83375    -2.66321
O      0.75016    -2.86974    -0.42533
O      1.78112    -1.60917    -1.94160
H      2.29827    -1.31176    -1.14922
H     -0.26031    -3.90729    -2.63844
H     -1.06517    -2.36940    -2.45449
H      0.27094    -2.51012    -3.62908
C      0.82436     2.55539    -1.14704
C      1.28767     1.70235    -2.27802
O      1.27840     2.47584    -0.01291
O     -0.13105     3.39528    -1.47495
H     -0.40213     3.92405    -0.68212
H      2.20333     1.19484    -1.99796
H      0.51909     0.95888    -2.46936
H      1.43033     2.30418    -3.17283
C     -0.13398     4.87365     1.70729
C     -0.46072     5.88285     2.76888
O     -0.84724     4.70185     0.72891
O      0.97226     4.19527     1.92713
H      1.11461     3.54190     1.19166
H      0.29753     5.87851     3.54316
H     -0.53189     6.86673     2.31124
H     -1.43520     5.64680     3.18946
C      2.26581    -0.41724     1.22796
C      2.66262     0.56234     2.28315
O      2.93245    -0.65087     0.23755
O      1.10338    -1.02358     1.45275
H      0.98232    -1.76116     0.80189
H      2.20280     0.31673     3.23564
H      3.74506     0.57364     2.37052
H      2.33133     1.55374     1.97498
C     -2.06274    -5.16493    -0.41820
C     -2.84727    -6.36302     0.04334
O     -2.48844    -4.29407    -1.13524
O     -0.81079    -5.18701     0.06273
H     -0.34908    -4.37487    -0.21764
H     -2.91983    -6.35790     1.12949
H     -3.83842    -6.33695    -0.39453
H     -2.33102    -7.27621    -0.24660
