 48
-1375.5433207612698
C     -1.30340    -0.52192     1.94284
C     -0.12708    -0.10674     2.76938
O     -1.23290    -1.20865     0.94860
O     -2.45106    -0.02179     2.40402
H     -3.18308    -0.37089     1.86301
H     -0.36264    -0.17866     3.82920
H      0.72044    -0.73461     2.52451
H      0.11375     0.92869     2.53862
C      2.19346    -1.86556    -0.85168
C      0.84963    -2.45812    -1.09285
O      3.04766    -1.77808    -1.72182
O      2.37561    -1.43365     0.38225
H      3.31271    -1.13549     0.51807
H      0.38642    -2.74526    -0.15788
H      0.22583    -1.69873    -1.56059
H      0.94479    -3.29987    -1.77393
C     -2.71255     2.27106     0.12036
C     -4.16126     2.55915     0.35047
O     -2.32221     1.56425    -0.79868
O     -1.91709     2.81316     1.00680
H     -0.96712     2.65414     0.76025
H     -4.55111     1.78394     1.00844
H     -4.28749     3.52399     0.83195
H     -4.69990     2.52291    -0.59144
C      0.94314     1.73849    -0.67579
C      2.38233     1.70432    -1.08432
O      0.55368     2.42626     0.25512
O      0.15623     0.95783    -1.37989
H     -0.79673     1.11586    -1.14041
H      2.72333     2.71382    -1.29950
H      2.96686     1.32889    -0.24990
H      2.51649     1.06190    -1.94472
C      5.64574    -0.33843    -0.25533
C      6.97461     0.31829    -0.02165
O      4.87186    -0.57594     0.66161
O      5.38549    -0.60573    -1.51448
H      4.50859    -1.07017    -1.60250
H      6.80043     1.33352     0.32841
H      7.50283    -0.21230     0.76561
H      7.55569     0.33367    -0.93615
C     -4.63064    -1.44770    -0.27321
C     -3.55536    -1.27410    -1.29285
O     -4.62948    -0.98608     0.85048
O     -5.67026    -2.17224    -0.71584
H     -6.30321    -2.23074     0.01081
H     -2.60017    -1.16340    -0.78745
H     -3.53916    -2.10870    -1.98705
H     -3.73158    -0.35067    -1.84319
