 48
-1375.5435252711243
C      2.67351     2.59031    -2.25472
C      4.09164     2.99724    -2.51142
O      2.06088     1.86067    -3.01989
O      2.16457     3.08476    -1.14927
H      1.25987     2.72585    -1.00745
H      4.16888     3.42330    -3.50794
H      4.42133     3.70831    -1.76355
H      4.72146     2.11124    -2.48554
C      2.66175    -1.18389    -0.99256
C      3.56397    -1.17264    -2.18259
O      1.96057    -2.13753    -0.70391
O      2.68569    -0.06736    -0.29546
H      2.01177    -0.11528     0.42324
H      3.11647    -0.54228    -2.94860
H      4.53040    -0.75460    -1.91423
H      3.68105    -2.18117    -2.56497
C     -0.58726     0.87278    -1.28167
C     -1.77890     0.12878    -0.80539
O     -0.22484     1.94005    -0.79855
O      0.05863     0.29888    -2.26971
H      0.78181     0.89144    -2.59719
H     -2.44623    -0.11243    -1.62653
H     -1.46773    -0.82039    -0.38851
H     -2.27959     0.71774    -0.05271
C     -1.72249     2.80139     2.32279
C     -2.12507     3.63732     3.50680
O     -2.10537     1.67270     2.12177
O     -0.88467     3.45229     1.51169
H     -0.65604     2.88482     0.75461
H     -1.23951     4.01903     4.01050
H     -2.70608     4.49338     3.16795
H     -2.71791     3.03762     4.18809
C     -0.02096    -1.20522     1.70923
C     -1.16465    -1.16495     2.66202
O      0.80064    -0.32079     1.57776
O      0.02047    -2.31358     0.98103
H      0.77330    -2.27707     0.32643
H     -2.07531    -0.98869     2.09205
H     -1.26143    -2.11589     3.18089
H     -1.02881    -0.34005     3.34941
C     -3.18922    -3.63498     0.21401
C     -4.37485    -4.56063     0.26259
O     -3.06812    -2.70900    -0.54754
O     -2.27467    -3.96001     1.14351
H     -1.51904    -3.34821     1.07260
H     -4.05971    -5.56984     0.00345
H     -4.77505    -4.59044     1.27396
H     -5.13201    -4.22028    -0.43374
