 80
-2292.5862846662726
C      2.07229    -0.63509     3.47643
C      1.06963    -0.61439     4.58761
O      2.20575     0.26768     2.66670
O      2.81043    -1.72587     3.46084
H      3.40794    -1.73094     2.68184
H      0.08024    -0.78701     4.16705
H      1.29787    -1.38333     5.31962
H      1.06014     0.36850     5.04759
C     -2.52326     2.60963     1.57124
C     -3.79744     2.36979     0.83147
O     -2.25316     2.05797     2.63328
O     -1.72831     3.47873     0.99683
H     -0.91444     3.65657     1.54447
H     -4.10927     1.34226     0.97754
H     -4.55760     3.03578     1.24251
H     -3.65126     2.59367    -0.21967
C      0.46466    -2.28430    -3.39889
C      0.02834    -1.39180    -4.51849
O     -0.29558    -3.04299    -2.82255
O      1.74556    -2.17740    -3.11229
H      1.98756    -2.79850    -2.37344
H      0.36073    -1.82504    -5.46099
H     -1.05101    -1.30751    -4.51839
H      0.48278    -0.41157    -4.41998
C      0.11772    -0.11653     0.19598
C     -0.74268     0.09136    -1.01503
O      0.41789    -1.19916     0.63637
O      0.53534     1.02297     0.74193
H      1.11707     0.81439     1.50652
H     -0.09734     0.24347    -1.87716
H     -1.37491    -0.77057    -1.17379
H     -1.36257     0.97466    -0.89513
C      1.53230    -4.07131    -0.23908
C      1.90187    -4.39031     1.17215
O      2.35029    -3.70385    -1.07058
O      0.25509    -4.23994    -0.50233
H      0.03347    -3.87207    -1.39129
H      1.50824    -3.61006     1.81846
H      1.46476    -5.33902     1.47415
H      2.98050    -4.40836     1.26449
C     -2.50300    -1.31966     1.92526
C     -2.12901    -2.77001     1.88937
O     -2.85434    -0.68210     0.96087
O     -2.39225    -0.77692     3.14833
H     -2.56393     0.17324     3.06737
H     -2.79488    -3.30402     1.21624
H     -1.12200    -2.84657     1.48444
H     -2.15590    -3.20722     2.88371
C     -3.81253     0.77959    -4.84498
C     -4.78233    -0.12314    -5.55003
O     -2.65842     0.91378    -5.22871
O     -4.30963     1.39717    -3.79799
H     -3.61542     1.94969    -3.35205
H     -4.36628    -1.12763    -5.57055
H     -5.74062    -0.11819    -5.04502
H     -4.88858     0.20664    -6.58043
C      0.69473     3.33136     3.48184
C      2.00990     3.53014     4.16433
O      0.35098     3.96832     2.50131
O     -0.05324     2.40228     4.04096
H     -0.88105     2.25624     3.52389
H      1.85878     3.63412     5.23591
H      2.62313     2.64923     3.98789
H      2.50276     4.40853     3.76304
C      4.79240    -1.49836     0.26440
C      3.94537    -0.57188    -0.54242
O      4.52871    -1.92627     1.37001
O      5.92441    -1.85004    -0.35471
H      6.39440    -2.45752     0.23015
H      4.52706     0.29458    -0.84931
H      3.60697    -1.08921    -1.43640
H      3.08482    -0.26053     0.03868
C     -1.23414     2.79800    -2.89161
C     -0.21285     3.46554    -2.02574
O     -2.42867     2.83050    -2.63870
O     -0.73411     2.17043    -3.93360
H     -1.46230     1.73986    -4.45511
H      0.46375     4.05564    -2.64050
H     -0.71032     4.08120    -1.28582
H      0.37163     2.70198    -1.51852
