 32
-917.0144795960714
C      2.14360    -1.66247    -2.50559
C      2.08392    -0.79775    -1.28689
O      1.23394    -1.86101    -3.27254
O      3.36064    -2.22187    -2.69648
H      3.28343    -2.75825    -3.49430
H      2.99977    -0.83591    -0.70948
H      1.87927     0.22282    -1.59546
H      1.26151    -1.11981    -0.65709
C     -2.00212     0.48068    -2.10781
C     -1.83279     0.29925    -3.58035
O     -3.07273     0.35953    -1.53436
O     -0.87715     0.77800    -1.48121
H     -1.03323     0.84844    -0.51123
H     -1.24962     1.12132    -3.98572
H     -1.28184    -0.62104    -3.75803
H     -2.80671     0.24742    -4.05218
C      2.12264     0.17922     2.68673
C      3.22389     0.43512     3.68157
O      2.16533    -0.62122     1.78934
O      1.05847     0.96969     2.92632
H      0.38121     0.80072     2.25158
H      2.83926     0.32563     4.69377
H      4.03987    -0.25867     3.51368
H      3.57992     1.45827     3.57294
C     -2.36420     0.66239     1.73708
C     -2.55849     0.68173     3.22130
O     -1.27812     0.86429     1.20135
O     -3.45943     0.41117     1.07115
H     -3.29923     0.39750     0.08361
H     -3.29986     1.43573     3.47689
H     -2.94544    -0.28273     3.54253
H     -1.61829     0.89481     3.71322
