 56
-1604.8017324842006
C      2.72176     0.47056    -1.75598
C      3.63797     1.24613    -0.87074
O      3.03127    -0.57114    -2.31063
O      1.51610     0.99261    -1.88445
H      0.92795     0.33235    -2.29063
H      3.42257     2.30861    -0.93753
H      3.45844     0.90991     0.14957
H      4.66695     1.03960    -1.13941
C     -3.46168    -0.83957    -0.72982
C     -4.32452    -1.98093    -1.15103
O     -2.78343    -0.16187    -1.48647
O     -3.47582    -0.61242     0.57535
H     -3.00418     0.21628     0.78277
H     -4.99216    -1.64819    -1.94288
H     -3.68540    -2.75849    -1.56449
H     -4.88691    -2.35928    -0.30560
C     -1.37023     2.25738     1.52130
C     -0.36084     1.52974     0.70127
O     -2.53592     1.87411     1.62888
O     -0.91326     3.32428     2.11568
H     -5.73687     5.39553     3.73874
H      0.22177     0.86362     1.33185
H     -0.88309     0.93927    -0.03970
H      0.31957     2.22189     0.22166
C      1.25144    -1.69573     0.69771
C     -0.18184    -1.89330     1.09691
O      1.90743    -0.72726     1.00793
O      1.70380    -2.68239    -0.06876
H      2.68514    -2.63970    -0.16328
H     -0.81183    -1.45755     0.32381
H     -0.43027    -2.94554     1.17754
H     -0.38544    -1.36894     2.02346
C     -0.50852    -2.28832    -2.55074
C      0.72204    -2.88564    -3.15161
O     -1.45447    -2.92756    -2.16543
O     -0.46308    -0.93905    -2.45616
H     -1.34683    -0.60940    -2.15816
H      1.46207    -2.12360    -3.36070
H      1.12289    -3.61264    -2.44948
H      0.44118    -3.41443    -4.06172
C     -3.90232     4.32932     3.60734
C     -4.90847     5.12090     4.38673
O     -2.72085     4.62887     3.54480
O     -4.42253     3.27941     3.00132
H     -3.73319     2.77866     2.50619
H     -1.61416     3.78810     2.65351
H     -5.30748     4.50341     5.18828
H     -4.43906     6.00577     4.79825
C      5.34493    -2.57022    -0.88081
C      6.67808    -3.21313    -0.62584
O      4.34332    -2.85085    -0.24914
O      5.37512    -1.66873    -1.84051
H      4.47844    -1.26572    -1.97680
H      6.58311    -3.95522     0.15777
H      7.04236    -3.67700    -1.53968
H      7.39742    -2.45172    -0.33167
