 40
-1146.2840072105168
C      1.19182    -0.68764    -1.60169
C      0.64971     0.29713    -2.58371
O      0.51211    -1.58604    -1.11130
O      2.45474    -0.51854    -1.30715
H      2.75331    -1.14349    -0.59236
H      0.41515     1.21625    -2.05274
H      1.38711     0.51208    -3.35232
H     -0.26247    -0.09032    -3.02090
C      2.49870    -2.64081     1.43130
C      2.82175    -2.92456     2.86281
O      3.24368    -2.03193     0.68024
O      1.31871    -3.10155     1.06140
H      1.07247    -2.70693     0.20261
H      3.89337    -2.87950     3.02377
H      2.33688    -2.16116     3.46999
H      2.42146    -3.89231     3.14888
C     -2.72633     2.53969    -1.48414
C     -1.82194     3.69165    -1.16726
O     -3.80614     2.32604    -0.99475
O     -2.18113     1.70976    -2.40341
H     -2.76589     0.94400    -2.45703
H     -1.44819     4.14504    -2.08361
H     -2.36896     4.41944    -0.57772
H     -0.96592     3.33070    -0.59695
C     -2.33763    -0.92852     0.51030
C     -3.76626    -0.80240     0.93163
O     -1.39314    -0.89080     1.27009
O     -2.18859    -1.06727    -0.80598
H     -1.23947    -1.22721    -0.98245
H     -4.07506     0.23292     0.80485
H     -4.40003    -1.42783     0.31021
H     -3.85920    -1.07584     1.97716
C      1.38744     1.22020     1.13317
C      2.77639     1.70248     1.43197
O      0.63990     1.72657     0.32883
O      1.07297     0.12925     1.83335
H      0.17079    -0.16957     1.58637
H      2.94783     1.74562     2.50496
H      3.48991     0.99780     1.00600
H      2.92935     2.67781     0.98347
