 72
-2063.327513792433
C      2.05611     0.55283    -0.80332
C      1.22968     1.77999    -1.00999
O      2.43995     0.18549     0.29726
O      2.31033    -0.11657    -1.90625
H      2.92739    -0.86148    -1.69933
H      1.34735     2.15844    -2.01697
H      0.19307     1.49870    -0.85194
H      1.47629     2.53221    -0.26899
C     -3.93048     3.28156     1.48707
C     -4.60297     2.96756     2.77898
O     -2.84413     3.82413     1.38371
O     -4.61503     2.89373     0.41886
H     -4.09067     3.10006    -0.37252
H     -4.06416     2.14093     3.24110
H     -4.53002     3.82503     3.44284
H     -5.63637     2.68897     2.60986
C     -1.42001     0.56258    -3.60659
C     -1.05643    -0.77584    -4.15270
O     -0.61602     1.47047    -3.47882
O     -2.69332     0.68411    -3.27605
H     -2.83775     1.56035    -2.85816
H     -1.08966    -1.50345    -3.34470
H     -1.77533    -1.07872    -4.90909
H     -0.05340    -0.74367    -4.55989
C      0.72489    -3.44336    -0.26889
C      1.63669    -4.58494    -0.58053
O      0.40379    -3.11788     0.87038
O      0.29661    -2.80840    -1.33220
H     -0.29010    -2.05484    -1.06857
H      2.46246    -4.20751    -1.17963
H      2.00299    -5.02891     0.33820
H      1.09528    -5.32487    -1.16941
C     -2.13897     3.99230    -2.02256
C     -2.48752     5.38680    -1.60758
O     -2.95769     3.07500    -1.98119
O     -0.90050     3.84115    -2.40756
H     -0.73329     2.91522    -2.73814
H     -3.46991     5.64143    -1.99367
H     -2.52848     5.41512    -0.52030
H     -1.73406     6.08124    -1.96356
C     -2.23021    -1.20741     0.23790
C     -3.57729    -0.56466     0.24196
O     -1.35208    -0.92018    -0.56668
O     -2.05869    -2.09022     1.19175
H     -1.15128    -2.47277     1.14478
H     -3.56877     0.18619     1.03180
H     -3.75027    -0.08265    -0.71244
H     -4.35424    -1.29128     0.46499
C      4.74270    -2.04394    -0.21627
C      5.88147    -3.00059    -0.07807
O      4.01810    -2.01254    -1.20001
O      4.57542    -1.25784     0.82603
H      3.78456    -0.68017     0.68193
H      6.75151    -2.49899     0.33696
H      5.57808    -3.78712     0.61001
H      6.11277    -3.43354    -1.04558
C     -0.92087     1.26638     2.21843
C      0.22856     0.36079     2.51589
O     -2.05802     1.05211     2.57862
O     -0.59318     2.32641     1.47317
H     -1.38196     2.90173     1.38932
H      1.13645     0.91517     2.72813
H     -0.03250    -0.28983     3.33954
H      0.42713    -0.25019     1.64000
C      3.33590    -3.07419     3.22501
C      4.26645    -2.46391     4.23156
O      3.55821    -4.08160     2.59717
O      2.21598    -2.35516     3.07925
H      1.69372    -2.76940     2.37930
H      5.02128    -3.18908     4.51864
H      4.75245    -1.59674     3.78521
H      3.71325    -2.12540     5.10508
