 72
-2063.330307216974
C      5.39581     0.16246     1.82760
C      6.89263     0.15025     1.76528
O      4.79062     0.42030     2.85739
O      4.79934    -0.12128     0.68657
H      3.81817    -0.07578     0.78486
H      7.27258     1.06876     2.20369
H      7.26094    -0.67645     2.36813
H      7.23012     0.04268     0.74107
C     -1.86974     4.69975     0.26074
C     -3.22220     5.06718    -0.25489
O     -1.70333     3.94918     1.22166
O     -0.86898     5.21660    -0.40661
H      0.00349     5.03551     0.04602
H     -3.15050     5.91033    -0.93246
H     -3.61812     4.19905    -0.78060
H     -3.88071     5.28562     0.58089
C      1.59542     3.79715     1.57718
C      2.97161     3.31144     1.89607
O      1.38041     4.74519     0.84158
O      0.63318     3.10514     2.16016
H     -0.24551     3.45316     1.87028
H      3.21882     2.50091     1.21599
H      3.69447     4.10918     1.76445
H      3.01236     2.91809     2.90563
C     -3.07420    -4.33353    -0.06284
C     -4.54728    -4.42680    -0.29878
O     -2.29261    -5.19441    -0.43475
O     -2.69875    -3.23985     0.57141
H     -1.71568    -3.15630     0.55381
H     -5.08841    -4.12830     0.59474
H     -4.80336    -3.73265    -1.09744
H     -4.80907    -5.43542    -0.59657
C     -2.96904     1.03057    -0.27877
C     -3.55713    -0.31917    -0.50184
O     -3.08928     1.96864    -1.03678
O     -2.25423     1.12526     0.85424
H     -1.99418     2.05482     0.96682
H     -2.84515    -0.92565    -1.05967
H     -3.76946    -0.82031     0.43472
H     -4.45104    -0.23138    -1.10883
C      0.67906    -3.72415    -0.27749
C      2.10765    -3.38554    -0.57751
O     -0.05414    -3.00415     0.38317
O      0.29530    -4.86449    -0.80482
H     -0.66452    -5.02827    -0.61261
H      2.31546    -2.38148    -0.22886
H      2.76208    -4.10449    -0.08817
H      2.26899    -3.45415    -1.65038
C      0.00170     1.37685    -1.78952
C     -0.46912     2.40876    -2.76433
O     -0.28984     0.19972    -1.83075
O      0.79785     1.86836    -0.84105
H      1.15758     1.13099    -0.32123
H     -0.05470     2.17817    -3.74600
H     -1.55253     2.35271    -2.83235
H     -0.15472     3.39629    -2.44789
C     -1.58353    -2.94271    -3.12565
C     -1.49757    -4.22556    -3.89816
O     -2.60669    -2.51049    -2.65358
O     -0.39125    -2.34799    -2.99847
H     -0.48828    -1.48651    -2.55491
H     -1.24632    -5.02505    -3.20323
H     -2.46514    -4.44091    -4.34008
H     -0.72748    -4.17209    -4.66273
C      1.58026    -0.06534     2.05469
C      0.14451    -0.43730     2.15778
O      2.15972     0.10012     0.98041
O      2.18970     0.05175     3.20503
H      3.16706     0.18684     3.08706
H     -0.29758    -0.46204     1.17074
H      0.06389    -1.42328     2.61034
H     -0.37984     0.27633     2.78527
