 72
-2063.327070265131
C      6.00431     0.73191    -0.50740
C      7.21840     0.36169     0.28611
O      5.58947     0.07411    -1.44661
O      5.42449     1.83980    -0.08573
H      4.63527     2.04761    -0.63433
H      7.61081    -0.58627    -0.06108
H      7.97203     1.13886     0.17743
H      6.96062     0.30136     1.34085
C     -2.30915     1.98232    -2.51254
C     -3.60116     1.33387    -2.91839
O     -1.27571     1.36723    -2.32050
O     -2.41368     3.29280    -2.38928
H     -1.55851     3.65252    -2.07208
H     -3.85740     1.65180    -3.92815
H     -3.50276     0.25606    -2.88039
H     -4.39219     1.66760    -2.25047
C      0.19383     4.24337    -0.33665
C     -0.79194     4.98122     0.50630
O      0.03512     3.99147    -1.51704
O      1.28386     3.87343     0.31978
H      1.85968     3.38576    -0.28913
H     -0.28512     5.73162     1.10721
H     -1.54187     5.43297    -0.13318
H     -1.27105     4.26686     1.17160
C     -5.24816    -2.73835     0.74996
C     -6.56105    -2.83527     1.47173
O     -5.17462    -2.37285    -0.41361
O     -4.19991    -3.07922     1.47060
H     -3.37413    -2.96390     0.92246
H     -6.41115    -3.14255     2.50019
H     -7.05698    -1.86884     1.43026
H     -7.19517    -3.54951     0.95212
C      2.06144    -1.26953     1.66409
C      2.87805    -0.31237     0.86315
O      1.58285    -2.29019     1.19473
O      1.91809    -0.91118     2.92170
H      1.33673    -1.54984     3.40734
H      2.28318     0.57012     0.64893
H      3.74502    -0.00470     1.43561
H      3.17557    -0.76917    -0.07093
C     -1.98577    -2.44215    -1.17705
C     -0.67082    -2.40289    -1.88618
O     -2.09238    -2.73002     0.00470
O     -3.01891    -2.12530    -1.92873
H     -3.85467    -2.21494    -1.39664
H     -0.73328    -2.97161    -2.81185
H     -0.44129    -1.36954    -2.13954
H      0.10045    -2.80550    -1.23937
C      2.87601     1.75342    -2.57928
C      1.74472     2.16142    -3.45926
O      3.10423     2.28574    -1.49293
O      3.60860     0.77587    -3.05830
H      4.35693     0.53909    -2.45029
H      0.85149     1.60706    -3.17360
H      1.53585     3.21253    -3.30478
H      1.98343     1.94149    -4.49474
C     -1.12155     1.04925     0.93293
C     -1.20163     0.14228     2.11936
O     -1.84939     1.98830     0.73674
O     -0.12826     0.71107     0.09162
H     -0.32508     1.11400    -0.77975
H     -2.19240     0.19497     2.55627
H     -0.98114    -0.88060     1.83094
H     -0.46542     0.44384     2.86129
C     -0.37469    -3.48834     3.58407
C     -1.55327    -4.19180     4.18838
O      0.15079    -2.51416     4.10111
O      0.02580    -4.01739     2.44816
H      0.67941    -3.42645     1.99767
H     -2.43477    -3.97698     3.58966
H     -1.38836    -5.26528     4.16989
H     -1.70485    -3.84392     5.20398
