 80
-2292.5845172454383
C      1.48621     4.06899    -0.37729
C      0.38790     5.05126    -0.14834
O      2.43142     3.94030     0.38118
O      1.35663     3.34472    -1.47737
H      2.19291     2.85556    -1.68361
H      0.81617     6.04313    -0.01563
H     -0.30162     5.03699    -0.98132
H     -0.13706     4.78075     0.76374
C     -3.62848     0.48868     0.01493
C     -4.21150    -0.31704     1.12383
O     -3.76189     1.71018    -0.06650
O     -2.95250    -0.19453    -0.86852
H     -2.52548     0.39517    -1.55191
H     -4.39980    -1.32963     0.78355
H     -3.46112    -0.37240     1.91037
H     -5.11564     0.14588     1.50357
C      2.51985    -6.23931    -1.11907
C      3.78935    -7.02557    -1.22576
O      1.83507    -5.93536    -2.08201
O      2.22171    -5.89236     0.11810
H      1.37341    -5.39573     0.14011
H      3.97702    -7.28046    -2.26146
H      4.61151    -6.43247    -0.83082
H      3.71403    -7.92610    -0.62071
C     -1.49490    -2.47235     2.98566
C     -1.52069    -1.83894     4.34330
O     -2.46869    -2.68008     2.30093
O     -0.25248    -2.77643     2.58303
H     -0.30392    -3.24499     1.73364
H     -2.50721    -1.96606     4.77915
H     -0.75450    -2.27625     4.97816
H     -1.31927    -0.77547     4.23174
C     -0.76668    -4.16936    -0.83813
C     -1.99156    -3.31700    -0.81061
O     -0.05495    -4.36500     0.14408
O     -0.50373    -4.68180    -2.01544
H      0.34874    -5.19163    -2.01395
H     -2.73145    -3.71262    -1.49931
H     -2.37595    -3.26493     0.19986
H     -1.73310    -2.30837    -1.12687
C     -4.03550     3.48377     2.83844
C     -4.54244     4.01774     4.14638
O     -2.93537     3.73373     2.38652
O     -4.91503     2.70537     2.22957
H     -4.52842     2.36514     1.39531
H     -3.81845     4.70426     4.56889
H     -5.49480     4.52099     3.99527
H     -4.71133     3.19059     4.83316
C     -0.61048     1.25105     1.68931
C      0.70390     0.69047     1.23436
O     -1.43114     0.63825     2.33011
O     -0.78903     2.51075     1.29663
H     -1.62719     2.87237     1.66629
H      0.70477     0.58545     0.15297
H      1.50329     1.37524     1.50978
H      0.85189    -0.28148     1.69132
C     -1.69875     2.54323    -2.63735
C     -0.95369     3.28464    -3.69893
O     -1.79030     1.32631    -2.62697
O     -2.24368     3.30459    -1.70674
H     -2.77333     2.75609    -1.09035
H     -1.28864     2.94567    -4.67584
H     -1.10871     4.35132    -3.58758
H      0.10284     3.04925    -3.60629
C      4.71884     2.28160    -1.39878
C      6.03141     1.76600    -1.88227
O      3.67579     2.15706    -2.04518
O      4.75035     2.86600    -0.23407
H      3.86061     3.24351     0.02052
H      6.03087     0.68683    -1.73286
H      6.13180     1.96289    -2.94590
H      6.83976     2.21609    -1.31773
C      3.39355    -1.21700    -1.17011
C      2.81498    -2.55406    -0.81528
O      4.53676    -0.89037    -0.96298
O      2.48548    -0.41341    -1.73968
H      2.90812     0.44049    -1.93402
H      3.59139    -3.20058    -0.42820
H      2.04730    -2.42940    -0.05697
H      2.34658    -3.01319    -1.68041
