 48
-1375.5454683168632
C      1.20083    -1.89532     2.53930
C      0.28524    -1.90166     3.71937
O      0.91466    -1.42054     1.45370
O      2.38381    -2.44279     2.78366
H      2.91245    -2.43067     1.95790
H      0.15859    -0.87404     4.05843
H     -0.69774    -2.25270     3.42012
H      0.69935    -2.50736     4.51759
C      1.45878    -0.85870    -1.74880
C      0.34907    -0.63313    -2.71768
O      2.24821     0.01434    -1.41957
O      1.52378    -2.09301    -1.29070
H      2.07245    -2.12476    -0.48396
H      0.56521    -1.17352    -3.63893
H     -0.56806    -1.02575    -2.29057
H      0.25027     0.42757    -2.91489
C     -0.81992     2.29421    -0.07983
C      0.41227     2.15156     0.75210
O     -0.79205     2.44180    -1.29188
O     -1.93338     2.24593     0.61980
H     -2.71538     2.38800     0.02870
H      0.30391     1.28117     1.39209
H      1.27357     2.04583     0.10490
H      0.51713     3.03147     1.38693
C     -3.94974     2.81011    -2.20767
C     -5.18282     3.05413    -3.02981
O     -4.01060     2.55981    -1.01157
O     -2.82621     2.89256    -2.88036
H     -2.04383     2.72109    -2.28603
H     -4.92947     3.11273    -4.08170
H     -5.89630     2.25547    -2.84646
H     -5.64064     3.98511    -2.70303
C      4.57290    -1.24669     0.58409
C      5.78409    -1.34950     1.45900
O      3.75059    -2.16032     0.51847
O      4.45634    -0.13740    -0.08572
H      3.59529    -0.11760    -0.60636
H      5.46084    -1.60981     2.46463
H      6.41277    -2.15991     1.09569
H      6.34064    -0.41913     1.46086
C     -2.50755    -1.12400     0.83645
C     -3.80634    -0.85685     0.14091
O     -2.40655    -1.53133     1.96659
O     -1.44172    -0.85405     0.05556
H     -0.63858    -1.07647     0.56588
H     -4.08006     0.18447     0.30273
H     -3.71966    -1.02756    -0.92759
H     -4.57711    -1.48819     0.57292
