 64
-1834.062853328778
C      0.87324     1.97038    -2.26772
C      0.00394     3.05813    -2.82963
O      0.49568     0.82768    -2.09439
O      2.08457     2.39543    -1.95530
H      2.65433     1.67278    -1.59052
H      0.56948     3.69498    -3.50410
H     -0.83956     2.61025    -3.34091
H     -0.36846     3.66638    -2.00735
C      2.29136     3.68631     0.99159
C      3.23738     4.55690     0.23517
O      2.62343     2.69422     1.60856
O      1.02507     4.08769     0.92735
H      0.47875     3.46617     1.43615
H      4.10932     4.76375     0.85049
H      3.57093     4.01502    -0.64753
H      2.74993     5.47846    -0.06131
C     -3.63480    -3.11963     0.42026
C     -3.76230    -4.59762     0.60247
O     -3.95276    -2.51988    -0.58957
O     -3.10518    -2.50093     1.47048
H     -3.03383    -1.55602     1.26548
H     -2.90455    -5.06485     0.12069
H     -3.76932    -4.85434     1.65607
H     -4.66303    -4.94754     0.10682
C      4.06961    -0.01560    -0.01765
C      4.69926    -1.35449    -0.21852
O      3.88887     0.79479    -0.91027
O      3.71177     0.21674     1.23580
H      3.29642     1.09703     1.31233
H      5.27592    -1.62991     0.65978
H      3.89709    -2.07823    -0.35054
H      5.31793    -1.34353    -1.11066
C      0.58055    -1.83913     0.03603
C      0.21819    -2.79537     1.12547
O      1.58851    -1.90367    -0.62206
O     -0.33991    -0.88002    -0.15483
H     -0.00757    -0.29304    -0.86768
H      1.10057    -3.35867     1.41459
H     -0.18758    -2.26136     1.97995
H     -0.53717    -3.48082     0.74470
C     -0.56187     1.34397     3.07140
C      0.55632     1.33741     4.06403
O     -0.77787     2.29815     2.32802
O     -1.29169     0.25437     3.05982
H     -1.96334     0.29183     2.33596
H      0.64053     2.32301     4.51017
H      0.39587     0.57959     4.82286
H      1.48683     1.13470     3.53373
C     -2.75994     0.96305    -0.02885
C     -3.26060     0.54984    -1.36484
O     -2.96032     0.33485     1.00617
O     -2.09668     2.09780    -0.03608
H     -1.66701     2.25506     0.83395
H     -4.04387    -0.18932    -1.25056
H     -3.61370     1.41309    -1.92280
H     -2.43648     0.09750    -1.91311
C     -1.23395    -3.27897    -2.39809
C     -0.18304    -3.38984    -3.46567
O     -1.31481    -4.02482    -1.44987
O     -2.04962    -2.23856    -2.59486
H     -2.72094    -2.20760    -1.88381
H     -0.58402    -3.09364    -4.43195
H      0.63356    -2.71660    -3.20473
H      0.19677    -4.40588    -3.49920
