 64
-1834.0677489970255
C     -2.12537    -0.70501     0.50545
C     -2.63821     0.24568    -0.52586
O     -2.60397    -0.79156     1.62242
O     -1.10703    -1.44354     0.09609
H     -0.93526    -2.16475     0.75509
H     -3.71539     0.34713    -0.43368
H     -2.17602     1.21136    -0.33514
H     -2.36158    -0.09471    -1.51621
C      0.93527     0.57169     3.10189
C     -0.24874     0.95288     3.92304
O      1.70348     1.38373     2.59717
O      1.08907    -0.72617     2.96190
H      1.83510    -0.94765     2.35765
H     -1.08924     1.07986     3.24314
H     -0.47689     0.16867     4.63347
H     -0.05748     1.89471     4.42695
C     -3.23528     1.38786    -4.24582
C     -4.60532     1.38332    -4.85595
O     -2.79363     2.36329    -3.65472
O     -2.57395     0.26089    -4.38113
H     -1.66432     0.33817    -3.98570
H     -4.79081     0.44383    -5.36351
H     -5.33797     1.53861    -4.06740
H     -4.69028     2.21720    -5.54810
C      3.89768    -0.42905     0.78541
C      4.99916    -0.78908    -0.15743
O      3.20116    -1.26114     1.35875
O      3.72153     0.86531     0.94215
H      3.00763     1.03776     1.60172
H      5.68885     0.04096    -0.26802
H      5.50437    -1.68214     0.19788
H      4.54007    -1.01408    -1.11964
C     -0.96100    -3.14488     3.13981
C     -0.20838    -3.92563     4.17503
O     -0.82201    -3.31480     1.94098
O     -1.77663    -2.24446     3.65249
H     -2.15999    -1.70147     2.91962
H      0.24374    -4.80082     3.72237
H      0.57490    -3.28468     4.57813
H     -0.87119    -4.20569     4.98959
C      1.68774    -2.44111    -1.54324
C      0.53049    -2.89811    -2.37061
O      2.40587    -1.50516    -1.81671
O      1.86324    -3.18222    -0.44483
H      2.53414    -2.74544     0.09864
H      0.72574    -3.89980    -2.75209
H     -0.35391    -2.93747    -1.74280
H      0.37470    -2.20434    -3.18942
C     -0.36601     3.29035     0.73503
C     -1.14724     4.43954     0.17560
O     -0.84085     2.23141     1.07719
O      0.94251     3.55310     0.81324
H      1.37879     2.81091     1.26067
H     -1.09426     4.40896    -0.91142
H     -2.18788     4.35582     0.47490
H     -0.72328     5.38079     0.51426
C      0.21446     1.47900    -2.64276
C      1.57315     1.46977    -2.02667
O     -0.21754     0.54593    -3.30124
O     -0.49250     2.56615    -2.40301
H     -1.36416     2.52325    -2.88088
H      2.23681     0.84847    -2.61507
H      1.95063     2.47934    -1.91203
H      1.48974     1.00649    -1.04688
