 64
-1834.0625576071611
C     -3.53514    -0.04606     2.86628
C     -4.32096    -0.16018     4.13152
O     -2.73346    -0.89670     2.50293
O     -3.76058     1.05629     2.19007
H     -3.24604     1.04500     1.33800
H     -3.77848     0.38681     4.90221
H     -5.30417     0.28504     4.01010
H     -4.39531    -1.20299     4.42114
C      0.75374    -1.27302     3.00438
C     -0.02829    -1.39058     4.26610
O      1.05960    -0.19291     2.50018
O      1.07387    -2.42067     2.46363
H      1.70570    -2.28440     1.71654
H      0.15397    -0.53527     4.90600
H     -1.08519    -1.37935     3.99475
H      0.20133    -2.32438     4.76996
C      1.89307     2.52148    -2.56403
C      1.35409     3.71407    -3.28189
O      2.41214     1.55906    -3.10346
O      1.77949     2.60168    -1.24448
H      2.12649     1.79281    -0.83264
H      0.57596     3.38902    -3.96920
H      0.96531     4.43635    -2.57330
H      2.15300     4.15629    -3.87419
C      3.09271    -0.90242     0.02263
C      4.16838    -0.74850    -0.99719
O      2.89045    -1.93806     0.62156
O      2.36210     0.19295     0.23110
H      1.79589     0.07579     1.04164
H      3.93956     0.07494    -1.66333
H      5.10911    -0.55540    -0.48257
H      4.26166    -1.67797    -1.54971
C     -1.46652     0.19206    -0.33075
C     -0.63617     0.34294    -1.55891
O     -2.35362     0.96863    -0.02706
O     -1.14977    -0.85952     0.40891
H     -1.75868    -0.91094     1.18848
H     -0.82824     1.31761    -1.98764
H      0.41005     0.24734    -1.29863
H     -0.89619    -0.43719    -2.26487
C      0.30758    -2.97422    -2.26992
C      0.38773    -3.86424    -1.06471
O     -0.71878    -2.63946    -2.80893
O      1.51558    -2.57626    -2.69466
H      1.38650    -1.96551    -3.44215
H      0.19097    -4.89209    -1.36815
H      1.37021    -3.79505    -0.61230
H     -0.37890    -3.56926    -0.35401
C     -1.39933     2.24625     4.02096
C     -2.02941     3.60394     4.09662
O     -1.56528     1.36648     4.83320
O     -0.65665     2.09343     2.91977
H     -0.24241     1.21642     2.92726
H     -1.30059     4.37716     3.86600
H     -2.82399     3.65843     3.35347
H     -2.45026     3.75853     5.08480
C      0.00108     0.22266    -4.88677
C     -0.87257    -0.77115    -5.58296
O     -0.26088     1.38713    -4.72581
O      1.14479    -0.32928    -4.42759
H      1.67338     0.37643    -3.99418
H     -1.77918    -0.28120    -5.92218
H     -0.34388    -1.20283    -6.43225
H     -1.11745    -1.58011    -4.89823
