 72
-2063.3201791098936
C      2.52345     1.45552     3.28915
C      1.71688     1.83359     4.49567
O      3.44948     2.10288     2.86044
O      2.08947     0.32432     2.72460
H      2.63652     0.14196     1.93786
H      1.14424     0.98615     4.85860
H      2.37958     2.21727     5.26713
H      1.03213     2.63112     4.21209
C     -3.16521     1.94419     0.60023
C     -4.61285     1.64852     0.84704
O     -2.43210     2.39012     1.46753
O     -2.75156     1.66998    -0.61716
H     -1.79281     1.89765    -0.70744
H     -5.17902     2.57806     0.82606
H     -4.99552     0.97494     0.08960
H     -4.72020     1.21125     1.83552
C      1.74523     0.85571    -3.43191
C      2.01898     0.33393    -4.79970
O      2.58076     0.92758    -2.54959
O      0.48720     1.23215    -3.26068
H      0.36158     1.55726    -2.35316
H      2.80120     0.93266    -5.26217
H      2.38092    -0.68734    -4.71079
H      1.11430     0.35719    -5.39555
C     -2.30279    -1.30399     1.85421
C     -0.88963    -0.99819     1.50480
O     -3.10201    -1.74078     1.03525
O     -2.63444    -1.04133     3.09726
H     -3.58949    -1.25859     3.25696
H     -0.88019    -0.07592     0.92798
H     -0.28441    -0.86941     2.39115
H     -0.49314    -1.76446     0.85090
C     -6.03931    -1.70252     2.53575
C     -7.51477    -1.77494     2.79958
O     -5.23262    -1.48306     3.42708
O     -5.70747    -1.87204     1.27466
H     -4.71814    -1.85201     1.16533
H     -8.05253    -2.00099     1.88616
H     -7.70304    -2.53390     3.55449
H     -7.84306    -0.82163     3.20733
C     -0.93415    -1.62581    -2.56304
C     -2.35692    -1.18782    -2.71515
O     -0.29113    -1.50636    -1.54446
O     -0.43162    -2.13690    -3.68958
H      0.48828    -2.40958    -3.53024
H     -2.81447    -1.66539    -3.57773
H     -2.90105    -1.41485    -1.80197
H     -2.36306    -0.10802    -2.85108
C      0.56036     2.59102     0.20493
C      2.02696     2.72863     0.01887
O     -0.19986     2.25040    -0.70260
O      0.13598     2.84261     1.41277
H     -0.84433     2.67712     1.47951
H      2.42470     3.49415     0.67532
H      2.48243     1.77810     0.28763
H      2.25627     2.91882    -1.02152
C      4.69396     0.69490     0.24978
C      5.87744     0.87520     1.14435
O      3.71846     0.02074     0.53901
O      4.80464     1.34081    -0.90267
H      3.98933     1.23093    -1.43290
H      6.27552    -0.10332     1.40616
H      6.63406     1.47094     0.64597
H      5.54810     1.35997     2.06094
C      2.97079    -3.06158    -2.43001
C      2.67434    -2.43947    -1.10720
O      2.33540    -2.88763    -3.45115
O      4.03903    -3.87433    -2.41886
H      4.13878    -4.22454    -3.31268
H      1.67437    -2.73009    -0.80368
H      3.39991    -2.72821    -0.35338
H      2.67530    -1.35679    -1.20256
