 48
-1375.5474687650087
C      1.80384     0.20243    -2.57200
C      2.49694    -0.89212    -3.32336
O      2.23049     1.32441    -2.44190
O      0.65366    -0.20883    -2.02517
H      0.24699     0.55382    -1.58226
H      2.91400    -1.59484    -2.60354
H      1.79253    -1.43117    -3.95253
H      3.29995    -0.47511    -3.92245
C      0.64848    -2.87649    -0.13732
C     -0.15884    -3.90483    -0.85497
O      1.85527    -2.77600    -0.24184
O     -0.06685    -2.07646     0.64725
H      0.48967    -1.32270     0.97033
H     -0.84409    -3.41000    -1.54027
H      0.49777    -4.57678    -1.39790
H     -0.77134    -4.45180    -0.14455
C     -1.31249     1.64913     2.06176
C     -1.79892     0.92456     3.27338
O     -0.59639     2.63736     2.13480
O     -1.71671     1.13149     0.92230
H     -1.26688     1.57416     0.16800
H     -2.02964     1.64157     4.05703
H     -2.65998     0.31493     3.02878
H     -0.99121     0.28680     3.62823
C      0.26037     3.37932    -0.96395
C      0.77261     4.11534    -2.16006
O     -0.32544     2.30033    -1.04007
O      0.49558     3.97251     0.17857
H      0.06379     3.48263     0.93469
H      1.49755     3.48198    -2.66603
H     -0.05251     4.29338    -2.84646
H      1.22627     5.05011    -1.85193
C      2.46257     0.30359     0.91877
C      3.06455     1.65887     1.09889
O      1.37984    -0.01440     1.38128
O      3.21781    -0.50907     0.21478
H      2.77026    -1.38023     0.09218
H      3.36185     2.04531     0.12859
H      2.33540     2.31244     1.56009
H      3.95000     1.58456     1.72887
C     -3.63063    -2.92474     0.84084
C     -5.04114    -2.80034     1.34529
O     -3.27420    -3.60430    -0.08783
O     -2.78284    -2.16877     1.56405
H     -1.89721    -2.26203     1.17963
H     -5.12446    -3.29131     2.31363
H     -5.28818    -1.74972     1.48108
H     -5.72111    -3.26566     0.64124
