 80
-2292.590971414749
C      1.84121    -0.91597     1.29366
C      1.33553    -2.08760     2.07130
O      1.11191     0.01496     0.96762
O      3.10234    -0.98176     0.97846
H      3.36963    -0.14950     0.50343
H      1.00974    -2.84095     1.35448
H      2.10560    -2.51485     2.70724
H      0.47826    -1.79069     2.66297
C     -0.39819     3.77892    -2.18022
C     -0.00910     4.72679    -1.10366
O     -1.29951     2.94942    -2.05259
O      0.29435     3.88989    -3.28655
H     -0.09322     3.34537    -4.02317
H      0.31223     5.67115    -1.53137
H     -0.84134     4.85514    -0.42371
H      0.81832     4.31448    -0.52393
C      0.10972    -4.94394    -0.75930
C      0.04297    -6.21626     0.02053
O      1.00971    -4.12527    -0.61815
O     -0.88957    -4.77700    -1.59363
H     -0.78457    -3.92750    -2.09680
H      1.00259    -6.41223     0.48580
H     -0.71339    -6.09780     0.79444
H     -0.25564    -7.03975    -0.62219
C      2.61973     3.88390     2.03129
C      3.99365     3.78140     2.63455
O      2.40906     4.31703     0.92147
O      1.67243     3.40985     2.84372
H      0.81134     3.42935     2.37686
H      4.60599     4.61255     2.29693
H      3.93883     3.75796     3.71899
H      4.44534     2.85529     2.28002
C      0.26590    -1.60443    -2.58208
C      0.20683    -0.25597    -3.21864
O     -0.56712    -2.46884    -2.80729
O      1.28423    -1.78439    -1.76750
H      1.23357    -2.68579    -1.35821
H      0.17814     0.52094    -2.46344
H      1.08952    -0.09105    -3.82904
H     -0.68036    -0.20638    -3.83539
C     -1.20913     2.15008     1.53713
C     -1.22048     1.24236     2.71742
O     -0.72247     3.26391     1.53550
O     -1.77185     1.62085     0.45440
H     -1.60660     2.19574    -0.31370
H     -2.20367     0.81270     2.87170
H     -0.53295     0.42660     2.50890
H     -0.88814     1.78227     3.59602
C     -2.27663    -4.07399     5.01628
C     -2.37594    -4.80043     6.32530
O     -2.08639    -4.66369     3.96059
O     -2.40871    -2.77150     5.10704
H     -2.35335    -2.35469     4.20851
H     -2.52599    -4.09778     7.13659
H     -3.20197    -5.50555     6.27455
H     -1.46682    -5.37591     6.48065
C     -1.93310     2.13896    -5.27289
C     -2.63450     1.65055    -6.50314
O     -0.78429     2.55345    -5.27612
O     -2.66526     2.05248    -4.18050
H     -2.17434     2.39868    -3.39641
H     -2.02624     1.84586    -7.37802
H     -2.80829     0.58054    -6.40738
H     -3.60367     2.13434    -6.59342
C      2.99889     1.90985    -0.94296
C      3.47463     2.99085    -1.85252
O      3.72458     1.27967    -0.19467
O      1.69541     1.69187    -1.01847
H      1.41670     1.05754    -0.31540
H      3.16404     3.94403    -1.43008
H      4.55787     2.96210    -1.93262
H      3.01321     2.88490    -2.82898
C     -1.96015    -2.29485     1.67005
C     -1.71247    -1.55715     0.39390
O     -2.29297    -1.73376     2.70340
O     -1.77164    -3.59333     1.59239
H     -1.92274    -4.01706     2.48464
H     -2.48971    -0.81668     0.23881
H     -0.77179    -1.01177     0.49603
H     -1.65814    -2.25291    -0.43317
