 80
-2292.593651945441
C      0.45752    -0.58057    -2.21774
C      0.59588    -1.94537    -2.80881
O      0.41544     0.42595    -2.89599
O      0.39203    -0.55465    -0.89536
H      0.38911     0.38403    -0.57461
H      0.60962    -2.70369    -2.03640
H     -0.23548    -2.12418    -3.48649
H      1.51829    -1.99535    -3.38110
C     -2.97155     2.89464     1.42309
C     -3.10560     4.06118     2.33724
O     -3.16519     1.73757     1.79595
O     -2.60115     3.18004     0.20156
H     -2.67032     2.39043    -0.40016
H     -3.92342     3.88901     3.03027
H     -2.17828     4.15418     2.89630
H     -3.24749     4.97763     1.77660
C     -0.49331    -5.84812    -2.60024
C     -0.14576    -6.70665    -3.78103
O      0.00747    -6.00089    -1.49597
O     -1.37631    -4.91111    -2.87951
H     -1.60144    -4.38642    -2.07100
H      0.26778    -6.08257    -4.57016
H      0.57316    -7.46137    -3.48691
H     -1.04654    -7.17679    -4.16914
C      0.39879     5.96226     3.13381
C      0.94074     7.31716     3.51104
O     -0.46162     5.79577     2.30134
O      0.98335     4.97178     3.81677
H      0.56898     4.12247     3.56404
H      0.15053     7.89283     3.98989
H      1.78605     7.21735     4.18300
H      1.23143     7.84913     2.60770
C     -1.11191    -3.40808     0.27282
C     -1.22380    -2.32941     1.29241
O     -1.83836    -3.47360    -0.70828
O     -0.15975    -4.28741     0.50654
H     -0.15158    -4.96785    -0.21520
H     -0.54173    -2.49859     2.11673
H     -0.99147    -1.38641     0.81248
H     -2.24729    -2.27621     1.64576
C      0.14338     1.58313     2.81159
C      1.58063     1.18666     2.75120
O     -0.24622     2.71114     3.04656
O     -0.69569     0.58536     2.57701
H     -1.58723     0.95219     2.45099
H      1.84768     0.99927     1.71482
H      2.19867     1.98544     3.14599
H      1.75221     0.26643     3.30435
C      3.58765    -0.10526    -1.00410
C      3.79492     1.27556    -1.53916
O      3.43759    -1.06653    -1.74288
O      3.54419    -0.18152     0.30462
H      3.38435    -1.12158     0.58644
H      4.36741     1.23809    -2.46013
H      2.81060     1.67775    -1.77136
H      4.27007     1.91982    -0.80772
C     -3.51992     0.03468    -1.01962
C     -4.00151    -0.96067    -2.02580
O     -3.03186     1.11013    -1.32255
O     -3.66229    -0.36490     0.23044
H     -3.45790     0.37397     0.84971
H     -5.07743    -0.84224    -2.14380
H     -3.51301    -0.77599    -2.97624
H     -3.79510    -1.96492    -1.67313
C      0.34130     2.98515    -0.90555
C      0.38654     4.36144    -0.33764
O      0.50133     1.97822    -0.22736
O      0.12225     2.93844    -2.19415
H      0.16295     1.99945    -2.50675
H      0.73825     4.31522     0.68257
H      1.02728     4.99751    -0.94271
H     -0.61349     4.78560    -0.33881
C      2.99790    -3.65293     0.23496
C      3.08801    -5.05712     0.73419
O      3.17094    -2.68632     0.95822
O      2.70241    -3.55078    -1.04744
H      2.83952    -2.62516    -1.36640
H      2.85623    -5.74940    -0.06562
H      4.08850    -5.23306     1.12303
H      2.38212    -5.17868     1.55119
