 48
-1375.5375760004458
C     -1.37012     0.71420     0.68263
C     -2.32758     1.86601     0.75697
O     -0.78372     0.38417    -0.32029
O     -1.21078     0.11508     1.87196
H     -0.53065    -0.57041     1.77659
H     -1.77381     2.76822     1.01265
H     -2.78254     2.02341    -0.21402
H     -3.08542     1.70195     1.51698
C      1.02026    -3.09097    -1.79050
C      0.54320    -3.99619    -2.87553
O      0.62782    -3.18693    -0.62718
O      1.88549    -2.19168    -2.17452
H      2.16975    -1.61329    -1.41645
H      0.77677    -5.02342    -2.61063
H     -0.54055    -3.94147    -2.93065
H      0.99612    -3.72386    -3.82251
C      0.74696     3.11330    -0.96260
C      1.30490     2.20249    -2.00314
O      1.12998     3.12833     0.20026
O     -0.20917     3.89257    -1.41509
H     -0.53325     4.50200    -0.70314
H      2.17910     1.69399    -1.61702
H      0.54309     1.47174    -2.26123
H      1.54676     2.77428    -2.89679
C     -0.52456     5.61959     1.61750
C     -0.94749     6.69015     2.58133
O     -1.09496     5.45167     0.54933
O      0.49220     4.89362     2.02503
H      0.74107     4.21984     1.33744
H     -2.00743     6.57749     2.79395
H     -0.36391     6.63221     3.49249
H     -0.81326     7.65978     2.10732
C      2.11729    -0.54390     0.87310
C      2.43245     0.52509     1.86405
O      2.67610    -0.65037    -0.20076
O      1.16233    -1.37596     1.27198
H      0.99615    -2.07047     0.58540
H      2.71240     0.07786     2.81566
H      3.23193     1.15042     1.48596
H      1.54017     1.12630     2.01809
C     -1.86358    -5.98680    -0.62273
C     -2.91239    -6.84515     0.02580
O     -1.43661    -6.16427    -1.73715
O     -1.45942    -4.99133     0.17973
H     -0.77845    -4.46900    -0.27656
H     -3.01384    -6.60352     1.07803
H     -3.86013    -6.68380    -0.48464
H     -2.64466    -7.89035    -0.10670
