 48
-1375.5496376719452
C     -2.46547     1.31379     2.99808
C     -3.65655     0.50617     3.42118
O     -2.55046     2.32389     2.33513
O     -1.31229     0.77960     3.39331
H     -0.57885     1.27431     2.97034
H     -4.47769     1.17187     3.67153
H     -3.96891    -0.10227     2.57228
H     -3.41732    -0.14336     4.25838
C      1.66349    -1.77773     0.77372
C      0.73005    -1.68316     1.93502
O      2.31380    -0.82325     0.35310
O      1.73313    -2.97298     0.24411
H      2.41512    -3.01632    -0.47725
H     -0.27452    -1.92809     1.60214
H      1.01642    -2.40816     2.69606
H      0.74466    -0.67959     2.34040
C      0.37778     2.33510     0.74862
C     -0.38960     3.54197     0.31500
O      0.54578     1.97540     1.89779
O      0.90399     1.66385    -0.27654
H      1.42618     0.92678     0.07943
H     -1.09595     3.82427     1.08706
H      0.31594     4.35605     0.14479
H     -0.90072     3.32694    -0.61681
C     -3.59080     1.18784    -0.62478
C     -4.70839     1.93412     0.02646
O     -3.22330     0.08100    -0.25346
O     -3.02258     1.83797    -1.61631
H     -2.33962     1.26635    -2.06617
H     -4.27495     2.55089     0.81311
H     -5.21563     2.56801    -0.69448
H     -5.39597     1.23138     0.48411
C      4.49139    -2.31111    -1.77962
C      5.66172    -2.54470    -2.68694
O      3.54926    -3.08393    -1.69539
O      4.57452    -1.18970    -1.09033
H      3.77104    -1.05856    -0.53486
H      5.73767    -1.72473    -3.39745
H      6.57894    -2.55926    -2.10326
H      5.53385    -3.48336    -3.21112
C     -0.58820    -0.53154    -2.14729
C      0.70951    -1.07091    -2.64825
O     -1.22805     0.31483    -2.74723
O     -0.96874    -1.04653    -0.99717
H     -1.84485    -0.66590    -0.71670
H      0.77914    -2.13599    -2.45323
H      0.82376    -0.86734    -3.70695
H      1.51371    -0.58218    -2.10281
