 48
-1375.5397831266546
C     -3.45632    -0.98788     0.03424
C     -4.39950     0.15639     0.25137
O     -3.21891    -1.80688     0.91015
O     -2.90500    -1.02157    -1.16071
H     -2.29491    -1.80265    -1.24811
H     -4.40433     0.81378    -0.61038
H     -5.39636    -0.23832     0.43901
H     -4.09010     0.70728     1.13590
C      1.55926    -0.82866     0.55768
C      0.17876    -0.46531     0.98206
O      2.39122    -0.00665     0.18865
O      1.80385    -2.11786     0.60115
H      2.74572    -2.32555     0.34720
H      0.11552     0.58954     1.20743
H     -0.49737    -0.67919     0.15788
H     -0.12423    -1.07327     1.82934
C      0.61538     3.15522    -0.74204
C      0.40767     4.51386    -1.32021
O     -0.20914     2.55568    -0.07617
O      1.80756     2.63667    -1.01780
H      1.87872     1.76228    -0.60160
H     -0.50373     4.51044    -1.91155
H      0.23672     5.22000    -0.51232
H      1.26272     4.80701    -1.91925
C     -3.02973     4.60163     0.65218
C     -4.35068     5.00493     1.25108
O     -2.34344     5.33337    -0.01698
O     -2.71256     3.33158     0.94151
H     -1.83780     3.12450     0.55760
H     -4.23474     5.96897     1.73923
H     -5.07396     5.12666     0.44677
H     -4.70278     4.25762     1.95429
C      5.21676    -1.92217    -0.17142
C      6.63350    -2.35684    -0.39101
O      4.29878    -2.71652    -0.03744
O      5.05533    -0.61452    -0.13623
H      4.10758    -0.38684    -0.01180
H      6.67797    -2.97200    -1.28595
H      7.28329    -1.49522    -0.48919
H      6.94565    -2.97602     0.44609
C     -0.93559    -3.84328    -0.42337
C      0.02368    -4.97504    -0.61073
O     -1.23302    -3.06857    -1.31970
O     -1.40818    -3.74568     0.80144
H     -2.10296    -3.03685     0.85070
H      0.15322    -5.17310    -1.66857
H      0.97746    -4.68114    -0.17875
H     -0.33092    -5.85767    -0.08662
