 72
-2063.324444454148
C      2.75865    -3.80890     2.31264
C      4.16285    -3.60584     1.86314
O      1.78971    -3.67758     1.57251
O      2.63111    -4.14806     3.57805
H      1.69827    -4.03610     3.85696
H      4.27726    -2.55538     1.59680
H      4.85600    -3.88169     2.64921
H      4.33758    -4.18632     0.96091
C     -0.35349     1.59733    -4.09440
C     -1.80304     1.54795    -3.73504
O      0.41672     2.40890    -3.58130
O      0.02898     0.71124    -4.97186
H      1.01497     0.74428    -5.12838
H     -2.36685     1.00928    -4.48863
H     -1.91035     1.04094    -2.77576
H     -2.18828     2.55423    -3.60549
C     -2.74465    -0.24830     0.08293
C     -1.66287    -1.24968    -0.12032
O     -3.15769     0.49677    -0.79733
O     -3.22413    -0.23179     1.30817
H     -3.91509     0.47356     1.40687
H     -0.84188    -1.01622     0.54763
H     -2.02797    -2.24098     0.12594
H     -1.30342    -1.21614    -1.14056
C     -0.77679    -3.02658     3.53723
C     -2.11737    -2.61562     4.05459
O      0.22031    -3.09938     4.24343
O     -0.76102    -3.31888     2.25317
H      0.15852    -3.52412     1.96310
H     -2.38739    -1.65082     3.63165
H     -2.86621    -3.33828     3.74167
H     -2.07680    -2.54064     5.13490
C     -5.45011     2.39489     0.59451
C     -6.57244     3.37143     0.80186
O     -5.01767     1.70188     1.50363
O     -4.97768     2.35566    -0.63321
H     -4.28075     1.65276    -0.71501
H     -6.72557     3.97265    -0.08712
H     -7.47786     2.81658     1.03843
H     -6.34359     4.00041     1.65821
C      2.38760    -0.98146    -0.57985
C      2.37460    -0.00689    -1.71129
O      3.15919    -0.93297     0.35282
O      1.44317    -1.92198    -0.67877
H      1.53586    -2.51375     0.08550
H      2.11554    -0.49655    -2.64499
H      1.62987     0.75528    -1.50008
H      3.34853     0.46061    -1.79381
C      3.42720     1.50229    -4.85606
C      4.89333     1.46697    -5.15587
O      2.63030     0.70187    -5.32149
O      3.08159     2.47237    -4.03550
H      2.10759     2.47147    -3.89025
H      5.20551     2.42359    -5.56799
H      5.44479     1.31405    -4.23077
H      5.10915     0.66716    -5.85347
C     -0.69942     2.47107    -0.23283
C     -1.40365     2.88840     1.02278
O     -0.02315     1.47456    -0.33305
O     -0.91713     3.31307    -1.24705
H     -0.42955     2.99139    -2.02950
H     -1.16808     3.92130     1.26949
H     -2.47775     2.82297     0.87105
H     -1.11447     2.22381     1.82700
C      1.53660     0.01526     3.07056
C      2.43360     1.13329     2.63550
O      0.35158    -0.06130     2.85569
O      2.20602    -0.93067     3.75084
H      1.56797    -1.60503     4.03636
H      1.88888     1.77738     1.95527
H      2.75282     1.69766     3.51235
H      3.30738     0.71895     2.14477
