 24
-687.7633666148644
C     -0.11085    -1.44306     0.04257
C      1.11154    -2.29725     0.07641
O     -0.06612    -0.21454     0.08670
O     -1.23140    -2.11215    -0.04027
H     -2.02374    -1.50732    -0.06911
H      1.72373    -2.01050     0.92617
H      0.83772    -3.34526     0.12165
H      1.71127    -2.09090    -0.80598
C      3.57694     0.65417    -0.00077
C      4.72141     1.62689    -0.04512
O      3.70651    -0.54436    -0.05691
O      2.39277     1.27166     0.10652
H      1.67879     0.61150     0.11085
H      4.37034     2.64534     0.07868
H      5.43206     1.36955     0.73700
H      5.23447     1.51876    -0.99870
C     -3.38645     0.64616    -0.02524
C     -4.64870     1.45218    -0.05623
O     -3.38599    -0.57104    -0.12117
O     -2.29266     1.36852     0.11319
H     -1.49262     0.79389     0.11084
H     -4.42816     2.50738     0.05382
H     -5.16027     1.26503    -0.99689
H     -5.30272     1.11175     0.74232
