 64
-1834.0641098240942
C     -4.16397    -0.33492    -1.56667
C     -4.52028     0.34663    -2.85388
O     -4.60710     0.01387    -0.48668
O     -3.31924    -1.33980    -1.72397
H     -3.11528    -1.76947    -0.85694
H     -5.20621     1.16248    -2.66121
H     -3.61306     0.71946    -3.32435
H     -4.97091    -0.37433    -3.53210
C      2.68343     4.17578     0.46663
C      2.21328     5.53325     0.86328
O      2.23172     3.57136    -0.50589
O      3.60395     3.66929     1.24864
H      3.88311     2.76720     0.94180
H      1.21968     5.41902     1.29475
H      2.88837     5.96460     1.59300
H      2.12763     6.16191    -0.01855
C      0.51498    -1.31784    -2.89519
C     -0.64838    -1.80492    -3.70444
O      1.35700    -2.03112    -2.40004
O      0.52820     0.01412    -2.77912
H      1.27870     0.27475    -2.22279
H     -1.52828    -1.21781    -3.47438
H     -0.41922    -1.69112    -4.76408
H     -0.81900    -2.85130    -3.48078
C      3.76666     0.60297    -0.49586
C      4.24194    -0.75656    -0.87133
O      4.27369     1.25343     0.39831
O      2.74329     1.06148    -1.21176
H      2.56314     2.00705    -0.97957
H      4.30677    -1.35620     0.03226
H      3.56320    -1.20901    -1.58257
H      5.24323    -0.66845    -1.29223
C     -3.04384    -1.94832     1.73574
C     -2.46627    -2.47718     3.00087
O     -2.83200    -2.45959     0.63759
O     -3.79330    -0.88777     1.88097
H     -4.13350    -0.57692     1.00342
H     -2.19612    -3.51868     2.87825
H     -1.56975    -1.89464     3.20594
H     -3.17041    -2.34088     3.81664
C      0.88440    -0.21427     2.12004
C      1.56268     0.94027     2.79813
O     -0.31830    -0.33905     2.06575
O      1.74241    -1.07464     1.57870
H      1.25745    -1.89861     1.32515
H      1.26291     0.96887     3.84430
H      2.64110     0.85278     2.72176
H      1.22602     1.86689     2.33908
C     -0.94995     2.93426     0.93232
C     -2.17824     2.23207     1.40435
O     -0.32904     3.74408     1.58353
O     -0.56588     2.54934    -0.29444
H      0.26712     3.00257    -0.48599
H     -2.88089     2.09934     0.58815
H     -1.88019     1.24885     1.76253
H     -2.62747     2.78999     2.22076
C      0.37610    -3.97184    -0.05362
C      1.42356    -4.75760    -0.77027
O      0.56306    -3.34964     0.97515
O     -0.81138    -4.00896    -0.64581
H     -1.43649    -3.47432    -0.12605
H      2.28736    -4.89021    -0.12743
H      1.01787    -5.71621    -1.08312
H      1.71695    -4.20103    -1.65847
