 56
-1604.8010747452292
C      0.68352    -1.42744     1.31043
C      0.04035    -0.31097     2.05472
O      1.75545    -1.30968     0.71643
O      0.00324    -2.54671     1.32521
H      0.46135    -3.26660     0.80603
H     -0.59469    -0.69951     2.84257
H      0.79888     0.35548     2.44541
H     -0.57853     0.24809     1.35528
C      2.28893     1.65078    -3.09292
C      3.62157     1.08808    -3.47987
O      2.06614     2.85006    -3.02857
O      1.38951     0.72938    -2.81751
H      0.54211     1.14541    -2.53314
H      4.25015     1.87075    -3.89031
H      4.08751     0.67024    -2.58915
H      3.49047     0.28235    -4.19775
C     -2.72240    -0.71156    -0.34624
C     -3.34828    -2.05088    -0.14598
O     -2.70042     0.18277     0.48024
O     -2.15274    -0.58034    -1.53981
H     -1.32502     3.67928     0.55300
H     -2.55454    -2.78062     0.00668
H     -3.99273    -2.03219     0.72425
H     -3.89987    -2.32952    -1.04138
C      2.26519    -4.39493    -0.60323
C      2.85917    -5.54509    -1.35728
O      1.17674    -4.46553    -0.05329
O      3.01743    -3.31323    -0.58886
H      2.56666    -2.58082    -0.10446
H      2.94486    -6.39867    -0.68986
H      2.18079    -5.82611    -2.15883
H      3.82936    -5.27487    -1.75728
C     -4.37157    -0.44649     3.49667
C     -4.76491    -0.34891     4.94585
O     -4.67080    -1.36974     2.78046
O     -3.64401     0.60630     3.09946
H     -3.39538     0.48735     2.16613
H     -4.41578     0.58202     5.37798
H     -5.84701    -0.42729     5.01969
H     -4.34085    -1.19851     5.47679
C     -0.83737     2.99435    -1.37759
C     -1.84651     3.40045    -0.36010
O     -0.84299     1.89772    -1.93131
O      0.06547     3.90586    -1.63899
H      0.77161     3.53901    -2.23358
H     -1.72578     0.29362    -1.60937
H     -2.39312     4.27106    -0.71935
H     -2.51800     2.57266    -0.16661
C      2.33563     2.39598     0.53164
C      3.13147     3.64819     0.33834
O      1.21400     2.35904     0.97420
O      2.99492     1.30096     0.12245
H      2.46661     0.52184     0.36058
H      2.87856     4.05474    -0.63984
H      2.85228     4.37625     1.09429
H      4.19707     3.44443     0.37238
