 40
-1146.2777375961905
C      1.05570    -2.28535    -2.07157
C     -0.16421    -2.68731    -2.82861
O      2.00777    -1.73004    -2.60027
O      1.01059    -2.55322    -0.78067
H      1.87627    -2.33699    -0.34053
H      0.03664    -2.63289    -3.89242
H     -0.47534    -3.68495    -2.53521
H     -0.98058    -2.01918    -2.56589
C      4.19661    -1.27785    -0.13902
C      5.44630    -0.93030     0.61638
O      3.28460    -1.90759     0.37948
O      4.15828    -0.83255    -1.37346
H      3.35264    -1.17631    -1.84803
H      6.12247    -0.35916    -0.00865
H      5.17219    -0.36073     1.50114
H      5.92129    -1.84745     0.95529
C      0.21697     1.97378     0.11061
C      1.29134     1.13010    -0.50352
O     -0.85640     1.49153     0.44994
O      0.52616     3.23844     0.25047
H     -0.22268     3.74689     0.66458
H      0.89565     0.64726    -1.39178
H      2.16271     1.72243    -0.75260
H      1.55112     0.34400     0.19833
C     -2.80150    -2.57495     0.22629
C     -1.74494    -2.14018     1.19755
O     -2.61407    -3.03893    -0.86990
O     -4.04956    -2.38380     0.71124
H     -4.65282    -2.67703     0.01761
H     -0.77251    -2.43529     0.82496
H     -1.78110    -1.05748     1.30853
H     -1.92961    -2.58926     2.17279
C     -2.55100     4.09739     1.66627
C     -3.64341     4.92419     2.27876
O     -1.47163     4.58247     1.35917
O     -2.86286     2.83292     1.49860
H     -2.10491     2.32539     1.09597
H     -3.88372     5.74370     1.60610
H     -4.51990     4.31528     2.46648
H     -3.27646     5.36021     3.20468
