 64
-1834.065571931744
C     -4.68407    -1.52402     3.34922
C     -5.37570    -2.35807     4.38916
O     -3.49844    -1.66932     3.08037
O     -5.45485    -0.63514     2.76577
H     -4.94539    -0.12523     2.07887
H     -4.80635    -2.32125     5.31436
H     -6.38783    -2.00304     4.54536
H     -5.38870    -3.39369     4.05598
C      1.84829    -0.40499     2.86943
C      1.11222    -0.48927     4.16568
O      1.55124     0.40412     1.98698
O      2.82626    -1.25621     2.73708
H      3.27614    -1.14170     1.85374
H      0.04661    -0.53734     3.95770
H      1.43638    -1.35955     4.72796
H      1.27758     0.42188     4.73278
C      1.19468     2.56870    -3.20583
C      0.15811     3.26563    -4.02840
O      2.30527     2.26474    -3.60183
O      0.78324     2.27564    -1.98345
H      1.46741     1.74999    -1.53827
H      0.62481     3.77370    -4.86444
H     -0.52818     2.50964    -4.40744
H     -0.40547     3.96171    -3.41481
C      3.62757    -0.20491    -0.51795
C      4.34446    -0.19317    -1.81747
O      3.91628    -0.94264     0.40408
O      2.60742     0.64975    -0.42947
H      2.20600     0.58445     0.47575
H      4.29501     0.78884    -2.27450
H      5.37147    -0.51398    -1.67145
H      3.84132    -0.91249    -2.46371
C     -2.99139     0.31519     0.49875
C     -2.34159     1.04737    -0.63072
O     -4.02730     0.69578     1.02377
O     -2.34560    -0.77109     0.87720
H     -2.76663    -1.15176     1.69288
H     -3.10144     1.48316    -1.27590
H     -1.73783     1.85132    -0.21070
H     -1.69596     0.37673    -1.18337
C      0.95464    -1.95238    -1.62173
C      0.67628    -2.57080    -0.28529
O      1.92994    -2.20335    -2.29253
O      0.03471    -1.05754    -1.98123
H      0.24126    -0.72421    -2.88085
H     -0.38787    -2.66653    -0.09833
H      1.17119    -3.53496    -0.21575
H      1.09254    -1.92139     0.48203
C     -1.29285     1.99213     3.78382
C     -2.78211     2.08587     3.94545
O     -0.47955     2.21617     4.64289
O     -0.97040     1.59873     2.53952
H     -0.02127     1.39266     2.49399
H     -3.20169     2.75593     3.19946
H     -3.21545     1.10419     3.77228
H     -3.02671     2.43458     4.94261
C      1.63963    -0.64541    -5.02338
C      1.74798    -1.93899    -5.76272
O      0.62348    -0.26213    -4.46795
O      2.77116     0.03384    -5.00785
H      2.64929     0.86777    -4.50611
H      2.07153    -2.69960    -5.05387
H      0.78074    -2.22477    -6.16312
H      2.49199    -1.85816    -6.54782
