 72
-2063.3270322296057
C      6.05039    -1.92609     0.91002
C      6.93000    -3.13229     0.77046
O      5.73427    -1.24588    -0.05631
O      5.65307    -1.68260     2.13634
H      5.08562    -0.86368     2.17174
H      6.39241    -3.89288     0.20874
H      7.81206    -2.86697     0.19396
H      7.20698    -3.52017     1.74406
C      0.60783     1.40036    -2.04795
C      1.54386     0.24545    -2.13995
O      0.47414     2.06016    -1.01356
O     -0.04447     1.69355    -3.13321
H     -0.66569     2.45605    -2.96579
H      1.60493    -0.21784    -1.16114
H      1.20747    -0.46128    -2.89033
H      2.53516     0.61203    -2.40264
C     -3.09474    -0.41522    -1.37885
C     -3.71926     0.77219    -2.03446
O     -3.57379    -1.00672    -0.43925
O     -1.92014    -0.75244    -1.92620
H     -1.64681    -1.60453    -1.55312
H     -3.53212     1.63819    -1.40497
H     -3.29258     0.94279    -3.01722
H     -4.79502     0.63134    -2.09344
C     -2.32715    -3.97279    -0.05630
C     -3.79364    -4.19910    -0.22802
O     -1.61258    -3.53246    -0.95541
O     -1.86787    -4.27177     1.13293
H     -0.88570    -4.12184     1.18755
H     -4.18328    -4.75537     0.61644
H     -4.27294    -3.22430    -0.29115
H     -3.97240    -4.72424    -1.16281
C     -4.17614     2.52000     1.37376
C     -5.50444     2.91437     1.96025
O     -3.76109     2.90605     0.30546
O     -3.50573     1.68729     2.17056
H     -2.67506     1.42419     1.73212
H     -5.96366     3.67509     1.33910
H     -6.15329     2.04113     2.01073
H     -5.36787     3.28665     2.97345
C      1.39541    -3.26423     0.35915
C      2.76360    -2.73746     0.63210
O      0.70211    -3.77123     1.22671
O      1.00349    -3.13207    -0.89074
H      0.05260    -3.37709    -0.97231
H      3.21995    -3.30583     1.43330
H      3.37071    -2.77933    -0.26356
H      2.66950    -1.70488     0.95515
C     -0.38714     0.03207     1.35810
C     -1.13195    -0.75868     2.38729
O      0.70754    -0.23745     0.93146
O     -1.07256     1.10037     0.92372
H     -0.55407     1.53081     0.20704
H     -0.51046    -1.57856     2.72843
H     -1.41282    -0.12553     3.22734
H     -2.04533    -1.14260     1.93607
C     -1.75967     4.39503    -1.66048
C     -2.83889     5.40807    -1.48231
O     -1.72363     3.59980    -2.58733
O     -0.83876     4.42469    -0.71363
H     -0.23004     3.66939    -0.83230
H     -2.41403     6.34141    -1.12471
H     -3.37161     5.54936    -2.41642
H     -3.52582     5.02813    -0.72780
C      3.78284     1.11556     1.22488
C      2.99150     2.37816     1.35060
O      4.12865     0.45039     2.18701
O      4.05429     0.78336    -0.02079
H      4.68321     0.01371    -0.05173
H      1.99901     2.20479     0.94467
H      2.92351     2.66829     2.39293
H      3.45720     3.16731     0.76605
