 72
-2063.3236867938294
C      0.15809    -3.31397    -0.81067
C      1.62117    -3.47082    -1.07219
O     -0.40342    -3.77480     0.17867
O     -0.47520    -2.64401    -1.74728
H     -1.46002    -2.65642    -1.61924
H      1.81846    -4.51805    -1.29461
H      1.91356    -2.84636    -1.90712
H      2.16554    -3.19702    -0.17506
C      3.80067     0.81601    -1.10637
C      3.00907     0.60024     0.13381
O      3.36508     0.55944    -2.23310
O      5.00751     1.28701    -0.92039
H      5.50272     1.40137    -1.77616
H      2.87351    -0.46815     0.28236
H      3.52514     1.02890     0.98487
H      2.02109     1.03270     0.03017
C     -4.92328     3.04597     1.75454
C     -5.78448     4.25700     1.53974
O     -4.95188     2.08196     1.00336
O     -4.13704     3.12052     2.80768
H     -3.63480     2.27365     2.91787
H     -5.59541     4.99923     2.30640
H     -5.57518     4.66585     0.55449
H     -6.82817     3.95334     1.55276
C     -3.69974    -3.00239    -0.43218
C     -5.15550    -2.73068    -0.22365
O     -3.09723    -2.68380    -1.44365
O     -3.12179    -3.60964     0.58950
H     -2.16188    -3.73497     0.42225
H     -5.24660    -1.78626     0.31025
H     -5.65466    -2.64144    -1.18233
H     -5.60209    -3.51498     0.37977
C     -2.48993     0.14493     2.05369
C     -1.31054    -0.75984     2.07557
O     -2.80987     0.84689     2.99713
O     -3.17024     0.11899     0.92108
H     -3.86610     0.82849     0.93274
H     -1.12225    -1.06356     3.09787
H     -1.47784    -1.62117     1.44113
H     -0.43769    -0.21896     1.71433
C      1.47565    -2.21026     2.76196
C      1.84543    -1.41789     3.97645
O      1.76798    -1.91461     1.62841
O      0.76951    -3.30885     3.05843
H      0.51108    -3.69703     2.21110
H      1.05066    -1.46786     4.71467
H      2.74994    -1.83683     4.41861
H      2.03253    -0.39099     3.68298
C      6.04213     1.19999    -4.26770
C      6.91311     1.31156    -5.48254
O      6.40028     1.59210    -3.16906
O      4.86944     0.64367    -4.50010
H      4.32951     0.60862    -3.67518
H      7.83397     0.76216    -5.30474
H      6.40018     0.92303    -6.35419
H      7.18060     2.35478    -5.62815
C     -0.31422     0.67464    -1.95845
C     -1.72361     0.65652    -2.44676
O      0.01949     1.05997    -0.85271
O      0.56167     0.22705    -2.84352
H      1.45775     0.28414    -2.46630
H     -2.04059    -0.37742    -2.56320
H     -2.36466     1.14599    -1.72550
H     -1.79383     1.14432    -3.41684
C     -0.13468     2.55882     2.16426
C     -0.44610     3.53109     3.26496
O      0.70656     1.69591     2.23592
O     -0.91578     2.74369     1.09275
H     -0.62186     2.12957     0.39370
H      0.24209     3.38108     4.09031
H     -0.37284     4.55253     2.89612
H     -1.46722     3.36883     3.60593
