 64
-1834.0694077869289
C     -4.69855    -3.86160    -0.50927
C     -5.95179    -4.56302    -0.93514
O     -4.42463    -3.67479     0.66655
O     -3.94148    -3.45271    -1.50686
H     -3.12468    -3.01238    -1.17055
H     -5.97081    -4.68997    -2.01123
H     -6.00839    -5.52471    -0.43280
H     -6.80609    -3.97436    -0.60938
C      3.93327     2.21720     0.54144
C      3.81296     3.69380     0.39337
O      3.34739     1.59349     1.42515
O      4.69452     1.63489    -0.34678
H      4.74768     0.65242    -0.18462
H      3.03148     3.87887    -0.34225
H      3.51704     4.13106     1.33960
H      4.74748     4.11158     0.03085
C      1.37658    -1.11755    -1.96640
C      2.34820    -0.17130    -2.59950
O      1.69453    -2.15863    -1.44478
O      0.10958    -0.67648    -2.01403
H     -0.47746    -1.30128    -1.54516
H      2.03719     0.06915    -3.61345
H      2.36623     0.75353    -2.02657
H      3.33409    -0.62064    -2.60111
C      3.95661    -1.61317     0.72824
C      3.88157    -3.10311     0.69833
O      4.74189    -0.96829     0.04876
O      3.08678    -1.04743     1.54522
H      3.17913    -0.06730     1.51934
H      4.83100    -3.50903     0.36741
H      3.60725    -3.48194     1.67762
H      3.10578    -3.38295    -0.01251
C     -1.46733    -2.10479     0.62030
C     -0.21941    -1.41332     1.04712
O     -1.77528    -2.20679    -0.57020
O     -2.21393    -2.57449     1.57886
H     -3.02867    -3.02400     1.22383
H     -0.30128    -0.37735     0.72848
H     -0.09569    -1.46352     2.12339
H      0.63161    -1.85386     0.53621
C      0.27578     2.74059    -1.71740
C     -0.21510     2.48679    -3.11135
O      1.42710     2.62805    -1.37736
O     -0.69441     3.09737    -0.86699
H     -0.29971     3.23620     0.03660
H     -1.26464     2.74595    -3.21386
H      0.38399     3.06656    -3.81184
H     -0.07566     1.43512    -3.34667
C      0.01305     2.56280     2.41604
C     -1.19874     2.62497     3.28733
O      0.25713     3.35613     1.51995
O      0.81670     1.55199     2.68872
H      1.62588     1.62481     2.15185
H     -1.95586     1.97631     2.84949
H     -0.96358     2.26316     4.28366
H     -1.57961     3.64048     3.31572
C     -3.13973     0.95300    -0.03580
C     -4.33714     0.04549    -0.03084
O     -2.29074     0.95521     0.82617
O     -3.09839     1.74188    -1.10814
H     -2.26110     2.24822    -1.09026
H     -5.24262     0.59064    -0.28618
H     -4.19157    -0.73505    -0.77344
H     -4.43319    -0.41657     0.94454
