 64
-1834.07128927759
C     -2.30658    -0.51963    -0.34948
C     -2.58964    -1.01228    -1.73167
O     -1.27907     0.07036    -0.05172
O     -3.24697    -0.78902     0.52915
H     -3.05343    -0.33002     1.38820
H     -2.01931    -0.42375    -2.44370
H     -2.24546    -2.04344    -1.79174
H     -3.65283    -0.97565    -1.95265
C      2.44723     1.65816     2.97518
C      2.91236     2.56320     4.06627
O      2.46493     1.96461     1.78983
O      2.01998     0.48910     3.39197
H      1.55582     0.01530     2.67298
H      3.38473     1.98886     4.85741
H      3.59322     3.30187     3.65888
H      2.04231     3.07374     4.47616
C      0.64791    -2.26039    -4.97716
C      0.48901    -3.66924    -5.47050
O      1.73111    -1.70002    -4.91052
O     -0.48632    -1.69870    -4.61191
H     -0.32362    -0.78047    -4.27284
H      0.04202    -4.27545    -4.68495
H     -0.18649    -3.68363    -6.32288
H      1.45630    -4.06906    -5.74906
C      1.72351    -0.90938    -0.03903
C      1.54075    -1.78475    -1.23251
O      1.32452    -1.17096     1.08532
O      2.37096     0.21095    -0.30715
H      2.40645     0.80017     0.47865
H      0.66093    -1.43827    -1.77244
H      2.39865    -1.70199    -1.89145
H      1.35943    -2.80703    -0.92806
C     -1.55131     0.50459     3.24851
C     -1.27685     0.78399     4.68797
O     -2.67376     0.48095     2.77738
O     -0.46511     0.31563     2.52070
H     -0.69124     0.17087     1.56753
H     -2.17666     0.61558     5.27089
H     -0.45497     0.16936     5.04112
H     -0.98620     1.83092     4.76429
C     -1.43921    -3.40820     0.95121
C     -2.60627    -4.26665     1.34348
O     -0.99223    -3.33522    -0.16932
O     -0.95970    -2.70392     1.98167
H     -0.21600    -2.14982     1.67910
H     -2.38694    -4.81450     2.25764
H     -3.46682    -3.62550     1.53332
H     -2.84117    -4.95420     0.53740
C     -0.61894     3.49879     1.71117
C     -1.99769     3.80645     1.20518
O     -0.32862     3.35332     2.87457
O      0.26105     3.38642     0.71250
H      1.08985     3.03143     1.07014
H     -2.15810     3.29245     0.26282
H     -2.73290     3.50005     1.94079
H     -2.09078     4.87864     1.03236
C      1.06510     1.22806    -3.45313
C      1.20891     2.55803    -2.78194
O     -0.01625     0.67924    -3.61257
O      2.20183     0.69959    -3.84597
H      2.04332    -0.17301    -4.29159
H      0.26618     2.83374    -2.32426
H      1.98640     2.49256    -2.02736
H      1.50558     3.30488    -3.51675
