 32
-917.0195141399236
C      1.31939    -1.66324    -1.53707
C      0.52132    -2.42476    -2.55414
O      1.66893    -0.51410    -1.67903
O      1.57411    -2.39100    -0.44824
H      2.06853    -1.85080     0.19836
H      0.90948    -2.20601    -3.54528
H      0.55939    -3.49014    -2.34972
H     -0.51139    -2.08234    -2.51280
C     -1.21548     1.48238    -1.70219
C     -0.54264     2.09743    -2.88606
O     -1.79560     0.40751    -1.75494
O     -1.10240     2.19436    -0.60188
H     -1.54726     1.73546     0.15673
H      0.50314     1.79643    -2.86299
H     -0.99639     1.72958    -3.79935
H     -0.59331     3.17981    -2.82500
C      2.70706     0.26018     1.82545
C      1.67109     1.10099     1.15647
O      2.94782    -0.90164     1.57978
O      3.38126     0.92123     2.78149
H      4.02358     0.30254     3.15166
H      1.42243     0.66154     0.19759
H      0.77141     1.13176     1.76821
H      2.01486     2.12157     1.01416
C     -2.78523    -0.15089     1.37654
C     -3.42634    -0.78911     2.57528
O     -2.14116     0.88577     1.46669
O     -2.97615    -0.79926     0.25178
H     -2.51879    -0.34477    -0.50995
H     -3.94821    -1.69364     2.28628
H     -2.65651    -1.01139     3.30996
H     -4.11425    -0.07895     3.02750
