 56
-1604.8059162817576
C     -0.23806     1.27475    -3.54584
C     -1.10432     1.53674    -4.73967
O      0.84629     0.74730    -3.58392
O     -0.81924     1.66354    -2.39901
H     -0.24205     1.40225    -1.66754
H     -0.48562     1.59097    -5.63005
H     -1.79880     0.70377    -4.84826
H     -1.67845     2.45117    -4.61503
C      0.09609    -2.57864     2.12257
C     -0.31010    -3.94070     1.64726
O      1.20987    -2.11975     2.00911
O     -0.92051    -1.90943     2.66852
H     -0.56680    -1.09380     3.08286
H      0.57377    -4.52878     1.42052
H     -0.92149    -4.43759     2.39709
H     -0.90623    -3.83084     0.74236
C      1.58699     0.53976     0.35888
C      2.18679    -0.64355    -0.30824
O      0.46702     0.96906     0.11216
O      2.36150     1.12053     1.25011
H     -2.18034     4.87912     1.84566
H      1.41244    -1.38490    -0.46582
H      2.58303    -0.33437    -1.27319
H      2.97150    -1.05941     0.31168
C      0.10156    -2.39479    -4.02320
C      1.14178    -2.49585    -5.09322
O     -1.05294    -2.06299    -4.24877
O      0.54684    -2.68909    -2.81969
H     -0.15740    -2.52243    -2.14681
H      0.66396    -2.55526    -6.06449
H      1.75746    -1.59962    -5.04728
H      1.77860    -3.35682    -4.91380
C     -2.21064    -1.22994    -1.27101
C     -2.88441    -0.48550    -0.16659
O     -1.31105    -2.03347    -1.07070
O     -2.65598    -0.93720    -2.47087
H     -2.10767    -1.39984    -3.15562
H     -3.94907    -0.38227    -0.36532
H     -2.70386    -0.99867     0.76976
H     -2.44440     0.50984    -0.11244
C     -0.55476     3.50057     1.95411
C     -1.30307     4.69860     2.45535
O      0.56273     3.20027     2.34691
O     -1.22062     2.79981     1.05913
H     -0.65907     2.07515     0.70459
H      1.89353     1.87774     1.65098
H     -1.60257     4.51586     3.48540
H     -0.64406     5.56207     2.45090
C      1.29644     0.44670     4.27038
C      2.22098    -0.65091     4.68427
O      0.18710     0.28179     3.80054
O      1.81510     1.65944     4.45366
H      1.21376     2.30755     4.05445
H      3.10847    -0.24479     5.15628
H      1.70196    -1.32999     5.35630
H      2.48338    -1.22080     3.79371
