 48
-1375.5389234135303
C      0.33435     1.32110     3.07288
C     -0.77179     2.28697     3.37603
O      1.48463     1.44898     3.40786
O     -0.10739     0.27841     2.34508
H      0.66161    -0.26556     2.12018
H     -1.59858     1.77526     3.86331
H     -0.40137     3.08560     4.00794
H     -1.14382     2.70301     2.44315
C      1.51241    -2.58186    -2.17535
C      0.67751    -2.99499    -3.33969
O      1.18099    -2.78403    -1.00880
O      2.62276    -1.97070    -2.49464
H      3.13194    -1.69061    -1.68211
H     -0.22155    -2.38354    -3.36016
H      1.22804    -2.88658    -4.26757
H      0.34376    -4.01858    -3.19959
C     -0.82678     1.40395    -0.61578
C     -0.44866     0.11363    -1.27184
O     -0.00507     2.26760    -0.34643
O     -2.10663     1.51145    -0.35604
H     -2.31585     2.40659     0.02264
H      0.59137     0.16746    -1.56512
H     -0.59255    -0.69323    -0.56155
H     -1.08668    -0.07353    -2.12939
C     -1.87406     4.87323     0.42558
C     -2.35094     6.27822     0.65533
O     -2.59305     3.90489     0.63793
O     -0.63866     4.78368    -0.00651
H     -0.37477     3.82993    -0.14011
H     -2.65506     6.38094     1.69410
H     -1.56765     6.98782     0.41607
H     -3.22943     6.45805     0.04008
C      3.27177    -0.70366     0.63347
C      3.81046     0.30159     1.58706
O      3.87621    -1.10941    -0.34202
O      2.04364    -1.12928     0.93234
H      1.74270    -1.79108     0.26556
H      3.74809    -0.08253     2.60192
H      4.83651     0.53699     1.32777
H      3.19104     1.19354     1.55465
C     -2.11261    -4.44189    -1.21031
C     -3.22099    -5.32864    -0.71831
O     -2.17337    -3.72813    -2.18104
O     -1.02037    -4.54218    -0.43692
H     -0.34026    -3.93010    -0.76818
H     -3.48077    -5.06071     0.30398
H     -4.08453    -5.21923    -1.36406
H     -2.88738    -6.36466    -0.71079
