 64
-1834.0709500815512
C     -4.06297    -1.57788     3.27291
C     -4.29220    -2.37464     4.51654
O     -3.37076    -1.97697     2.34617
O     -4.64758    -0.40129     3.27898
H     -4.42637     0.10613     2.45330
H     -5.22597    -2.08596     4.98805
H     -4.28202    -3.43363     4.28021
H     -3.47078    -2.15940     5.19779
C      0.81734    -2.18899     2.18915
C     -0.15241    -2.68691     3.20690
O      0.82378    -1.02586     1.77801
O      1.65168    -3.08984     1.74542
H      2.25911    -2.70425     1.05726
H     -1.15363    -2.61907     2.78203
H      0.07433    -3.70956     3.48716
H     -0.14421    -2.03375     4.07321
C      1.92121     3.20838    -1.92778
C      1.21783     4.43467    -2.41439
O      2.99698     2.81381    -2.33974
O      1.24248     2.55058    -1.00278
H      1.70886     1.72635    -0.78920
H      1.91803     5.09312    -2.91524
H      0.45191     4.12092    -3.12219
H      0.72904     4.94158    -1.58774
C      3.19137    -0.95359    -0.59127
C      4.11157    -0.54951    -1.68275
O      3.17896    -2.06053    -0.09213
O      2.33999    -0.00452    -0.19533
H      1.77799    -0.35543     0.54134
H      4.32768     0.51154    -1.62927
H      5.01837    -1.14534    -1.63642
H      3.60244    -0.76069    -2.62326
C     -2.98307     0.69070     0.42995
C     -2.29218     1.68165    -0.45416
O     -3.88568     0.99846     1.19429
O     -2.52792    -0.54143     0.31478
H     -2.89493    -1.11495     1.03663
H     -3.02420     2.37318    -0.86698
H     -1.58414     2.24795     0.15048
H     -1.75513     1.16605    -1.24071
C      0.48395    -1.33955    -2.56189
C     -0.12597    -2.39363    -1.68944
O      1.49181    -1.50092    -3.21197
O     -0.17609    -0.18162    -2.51705
H      0.23402     0.44923    -3.14609
H      0.17837    -3.37755    -2.03279
H      0.25038    -2.25639    -0.67852
H     -1.20713    -2.31123    -1.65461
C     -1.55562     0.81248     4.06692
C     -2.35828     2.01108     4.46514
O     -1.49641    -0.21613     4.69641
O     -0.91956     0.99206     2.90263
H     -0.38247     0.20664     2.70612
H     -1.81779     2.92753     4.24486
H     -3.28385     2.01220     3.89139
H     -2.59815     1.95084     5.52164
C      1.94451     1.07855    -4.95128
C      1.88592     0.25419    -6.19624
O      0.95955     1.44326    -4.33129
O      3.17980     1.35092    -4.57310
H      3.16529     1.88624    -3.75145
H      2.75669     0.44866    -6.81292
H      1.89451    -0.79361    -5.90035
H      0.96624     0.45555    -6.73629
