 56
-1604.8036438152935
C      4.96433     0.85285    -1.39186
C      6.15656     1.57679    -1.94351
O      4.79271     0.63663    -0.20516
O      4.11436     0.47276    -2.32785
H      3.38119    -0.03593    -1.92933
H      6.69352     0.92147    -2.62527
H      5.82385     2.44213    -2.51141
H      6.80413     1.88402    -1.13193
C     -0.68405    -0.47331    -2.82977
C     -1.80671    -0.60208    -3.80452
O      0.15723    -1.33478    -2.64977
O     -0.70677     0.65812    -2.14638
H      0.07724     0.71458    -1.54982
H     -2.63554    -1.08783    -3.29183
H     -2.12671     0.38010    -4.13675
H     -1.50362    -1.22073    -4.64382
C     -3.52065     1.65618     0.35569
C     -3.84783     1.34851    -1.06269
O     -2.93556     0.86411     1.09162
O     -3.88998     2.84262     0.76420
H     -2.54397     3.80307     5.68047
H     -3.00686     1.65836    -1.68154
H     -3.96486     0.27800    -1.17138
H     -4.73664     1.88879    -1.37370
C      1.41250     0.53943     0.61401
C      0.18355     0.33288     1.43585
O      1.40410     0.85911    -0.56351
O      2.53110     0.35947     1.28668
H      3.31780     0.50866     0.71490
H     -0.69095     0.36998     0.80251
H      0.24344    -0.63693     1.91813
H      0.11455     1.10454     2.19801
C     -2.29488    -2.39556    -0.25496
C     -1.57766    -3.69895    -0.41432
O     -2.95736    -1.87254    -1.12412
O     -2.11404    -1.84204     0.95121
H     -2.53551    -0.96890     0.95927
H     -0.99609    -3.92916     0.47015
H     -2.30690    -4.48250    -0.61492
H     -0.91531    -3.61839    -1.27114
C     -2.45794     2.48610     4.01055
C     -2.10393     2.84839     5.42120
O     -3.06497     3.23230     3.26204
O     -2.03617     1.27959     3.67222
H     -2.26893     1.06997     2.74106
H     -3.59700     2.99241     1.70326
H     -2.45558     2.06843     6.09143
H     -1.02154     2.89976     5.51459
C      2.41605    -2.44320    -0.43542
C      3.75909    -2.85944     0.08380
O      1.37053    -2.69123     0.10880
O      2.49051    -1.71142    -1.55926
H      1.57545    -1.59140    -1.93242
H      4.37045    -3.28056    -0.71205
H      4.26974    -1.97835     0.46988
H      3.63341    -3.58308     0.88288
