 64
-1834.0627679234049
C     -6.48978    -1.45883    -0.96276
C     -7.93514    -1.84951    -1.02410
O     -6.13043    -0.32112    -0.70082
O     -5.65551    -2.44821    -1.21081
H     -4.72091    -2.14141    -1.14901
H     -8.03714    -2.86150    -1.39784
H     -8.35932    -1.77445    -0.02565
H     -8.46738    -1.14646    -1.65855
C      3.03782     3.75713     1.30357
C      2.59704     5.11835     1.72691
O      2.53526     3.15710     0.35435
O      3.99550     3.24785     2.03677
H      4.26946     2.35704     1.69591
H      3.36997     5.59421     2.32049
H      2.34233     5.71006     0.85296
H      1.69616     4.99382     2.32785
C      1.53059    -1.26599    -3.21700
C      0.54760    -1.53154    -4.32065
O      2.14458    -2.12790    -2.63548
O      1.64794     0.03664    -2.93266
H      2.26014     0.15263    -2.18505
H     -0.11343    -0.68127    -4.45159
H      1.09160    -1.71195    -5.24744
H     -0.01670    -2.42531    -4.07643
C      4.17025     0.25241     0.18013
C      4.52508    -1.15943    -0.12205
O      4.67718     0.88702     1.08489
O      3.23899     0.77783    -0.61256
H      2.98228     1.67511    -0.28425
H      5.60074    -1.28826    -0.02936
H      4.04103    -1.78710     0.62440
H      4.17209    -1.43282    -1.10849
C     -2.75858    -0.44126    -0.80196
C     -1.33274    -0.02837    -0.69947
O     -3.09146    -1.60017    -1.04925
O     -3.62852     0.51573    -0.60913
H     -4.56712     0.18496    -0.65248
H     -1.26945     1.00685    -0.39267
H     -0.80924    -0.66419     0.00342
H     -0.86212    -0.15469    -1.67210
C      1.19776    -0.32061     2.49286
C      1.97700     0.42336     3.53824
O      0.04374    -0.10342     2.21658
O      1.93712    -1.25578     1.88350
H      1.35285    -1.77678     1.29795
H      1.73110     0.01641     4.51911
H      3.04145     0.31078     3.36252
H      1.69188     1.47110     3.52348
C     -0.71437     2.95406     1.73826
C     -2.01456     2.29397     2.05834
O     -0.00802     3.51415     2.54229
O     -0.37870     2.84097     0.44009
H      0.50991     3.21120     0.33474
H     -2.41130     2.70368     2.98299
H     -2.72634     2.41071     1.24658
H     -1.81718     1.23026     2.18954
C      0.06064    -3.43926    -0.59535
C      1.01792    -4.55130    -0.86508
O      0.18663    -2.62799     0.30210
O     -0.94852    -3.39272    -1.45594
H     -1.58565    -2.69952    -1.18881
H      1.66233    -4.24205    -1.68614
H      1.62824    -4.73355     0.01323
H      0.48097    -5.44828    -1.16149
