 40
-1146.2764232207267
C      1.88835    -3.03252    -2.29963
C      2.34808    -4.14285    -3.20818
O      1.28109    -3.18822    -1.27043
O      2.24014    -1.82768    -2.78025
H      1.93671    -1.14668    -2.15878
H      3.43062    -4.10489    -3.31635
H      2.04981    -5.10051    -2.79668
H      1.91427    -4.01056    -4.19773
C      2.14419    -0.03598     0.37972
C      3.60689     0.22515     0.49167
O      1.51311    -0.02948    -0.66802
O      1.56232    -0.29701     1.53513
H      0.60806    -0.44980     1.39914
H      3.92333     0.09117     1.51921
H      4.13684    -0.45704    -0.16886
H      3.80159     1.24030     0.15345
C      1.85270     3.00792    -1.96222
C      1.73349     4.28970    -2.74392
O      2.60434     2.84061    -1.03282
O      1.01937     2.06806    -2.42478
H      1.12549     1.26707    -1.88211
H      2.41748     5.02616    -2.33815
H      1.96266     4.10365    -3.79147
H      0.71127     4.65945    -2.68986
C     -2.13423    -1.01366     0.56096
C     -1.45639    -1.78181    -0.51854
O     -3.34087    -0.87427     0.62604
O     -1.30319    -0.49752     1.45897
H     -1.80350     0.00295     2.16329
H     -2.16233    -1.99869    -1.31183
H     -0.60289    -1.22892    -0.89405
H     -1.06702    -2.71133    -0.11050
C     -3.83981     1.04959     3.29683
C     -4.48023     1.88932     4.36111
O     -2.63656     0.82806     3.28366
O     -4.67660     0.58301     2.39940
H     -4.19550     0.03381     1.72642
H     -4.29680     1.43038     5.32946
H     -4.00735     2.86800     4.37143
H     -5.54443     1.98157     4.17949
