 48
-1375.5445378980858
C     -0.06735    -3.28299     1.17852
C      0.84340    -4.31357     1.76986
O     -0.95729    -2.74154     1.81640
O      0.19659    -3.00738    -0.08009
H     -0.45225    -2.34847    -0.43748
H      0.44735    -4.64978     2.72158
H      0.96524    -5.14527     1.08144
H      1.81719    -3.85256     1.92109
C      1.71069     0.16067     1.32108
C      0.33929     0.51672     1.78684
O      2.36485     0.86816     0.56056
O      2.15164    -0.98531     1.78145
H      3.07184    -1.17600     1.45288
H      0.14564     0.09936     2.76810
H      0.20922     1.59149     1.77160
H     -0.36724     0.08798     1.08205
C     -0.43104     1.63571    -1.76608
C     -1.22064     1.54352    -3.02641
O     -0.88661     1.93597    -0.67784
O      0.84845     1.33273    -1.93651
H      1.28789     1.35172    -1.07345
H     -0.60826     1.83568    -3.87593
H     -1.52025     0.50404    -3.16039
H     -2.11105     2.15554    -2.94717
C     -3.92879     3.61542    -0.72607
C     -4.99776     4.62054    -0.39124
O     -4.03865     2.79221    -1.60536
O     -2.85297     3.73563     0.05271
H     -2.18317     3.07323    -0.20642
H     -5.17543     5.24351    -1.26554
H     -5.92366     4.09224    -0.17490
H     -4.70078     5.23107     0.45388
C      5.38567    -0.69478     0.49084
C      6.83268    -1.00633     0.25694
O      4.60955    -1.50437     0.97595
O      5.03431     0.52376     0.13513
H      4.07246     0.66284     0.29050
H      7.30738    -0.20637    -0.29923
H      7.32149    -1.13337     1.22025
H      6.91235    -1.94917    -0.27690
C     -2.69115    -1.08779    -0.48880
C     -3.80317    -0.41390    -1.22029
O     -1.59570    -1.29757    -0.99802
O     -2.97836    -1.40609     0.75197
H     -2.22566    -1.89421     1.17786
H     -3.69033     0.66808    -1.13437
H     -3.75011    -0.66565    -2.27358
H     -4.76295    -0.69680    -0.79961
