 56
-1604.797759811372
C      0.52600     3.03239    -2.32157
C     -0.68210     3.16631    -3.19797
O      1.48117     2.33730    -2.58177
O      0.44482     3.77020    -1.20702
H      1.25302     3.62741    -0.68972
H     -1.37290     3.89352    -2.78455
H     -0.36341     3.46331    -4.19516
H     -1.16370     2.19613    -3.28188
C     -3.11100    -1.54196     1.40191
C     -4.13099    -1.24218     0.33988
O     -3.01880    -2.59861     1.97630
O     -2.30327    -0.49856     1.62469
H     -1.65140    -0.75487     2.30971
H     -4.80150    -2.08758     0.23406
H     -4.69386    -0.34848     0.60407
H     -3.63316    -1.05388    -0.60777
C      3.77741     2.23038    -0.32944
C      4.53957     2.52182    -1.57416
O      2.92192     2.98208     0.12818
O      4.07549     1.08187     0.23786
H      0.31079     0.68573     4.21769
H      3.83516     2.49044    -2.40327
H      4.94617     3.52796    -1.51957
H      5.32323     1.78741    -1.71415
C     -0.60332    -0.57129    -1.14278
C      0.43921     0.17035    -0.37625
O     -0.70460    -1.78451    -1.10308
O     -1.39157     0.19617    -1.86578
H     -2.00324    -0.34775    -2.43321
H     -0.02995     0.94953     0.21803
H      0.96624    -0.52201     0.26745
H      1.13171     0.63063    -1.07637
C     -2.81205    -2.51863    -3.51330
C     -3.62894    -3.26326    -4.53009
O     -2.96869    -1.32015    -3.31291
O     -1.93515    -3.25721    -2.87927
H     -1.44339    -2.71717    -2.20201
H     -3.47384    -2.81102    -5.50681
H     -3.34713    -4.30949    -4.54752
H     -4.68286    -3.15592    -4.28562
C      1.80592     1.52967     2.99255
C      1.16956     1.34490     4.33207
O      2.41506     0.63067     2.42054
O      1.65192     2.72876     2.47892
H      2.11467     2.81022     1.61068
H      3.52904     0.93445     1.03923
H      1.87694     0.85052     4.99198
H      0.85654     2.30154     4.73575
C      0.25107    -2.33042     2.98519
C     -0.18903    -3.75448     3.01238
O     -0.42897    -1.37739     3.32443
O      1.50039    -2.16979     2.55429
H      1.72967    -1.22629     2.59051
H      0.51634    -4.37097     2.46677
H     -0.23833    -4.07910     4.05148
H     -1.18931    -3.82523     2.59561
