 64
-1834.07094699461
C     -4.06489    -1.57652     3.27670
C     -4.29018    -2.36811     4.52401
O     -3.37133    -1.97640     2.35137
O     -4.65482    -0.40246     3.27815
H     -4.43127     0.10422     2.45263
H     -4.24230    -3.42841     4.29962
H     -3.48909    -2.11890     5.21762
H     -5.24103    -2.10430     4.97563
C      0.81824    -2.18117     2.19486
C     -0.15052    -2.67441     3.21599
O      0.82646    -1.01896     1.78126
O      1.65036    -3.08443     1.75154
H      2.25671    -2.70140     1.06098
H     -1.15401    -2.59381     2.79891
H      0.06742    -3.70077     3.48938
H     -0.12988    -2.02588     4.08555
C      1.92507     3.20533    -1.93900
C      1.21879     4.42992    -2.42531
O      3.00097     2.81220    -2.35199
O      1.24799     2.54764    -1.01271
H      1.71572     1.72466    -0.79737
H      0.45332     4.11336    -3.13233
H      0.72879     4.93471    -1.59816
H      1.91689     5.09090    -2.92590
C      3.19073    -0.95414    -0.59167
C      4.10800    -0.55274    -1.68654
O      3.17764    -2.06027    -0.09076
O      2.34229    -0.00287    -0.19471
H      1.78175    -0.35115     0.54431
H      3.59353    -0.75934    -2.62517
H      4.32971     0.50711    -1.63159
H      5.01177    -1.15342    -1.64572
C     -2.98031     0.68781     0.43257
C     -2.29037     1.67795    -0.45327
O     -3.88488     0.99516     1.19472
O     -2.52172    -0.54341     0.32210
H     -2.89101    -1.11581     1.04383
H     -3.02084     2.37641    -0.85685
H     -1.57344     2.23653     0.14791
H     -1.76269     1.16240    -1.24629
C      0.48387    -1.34256    -2.56246
C     -0.12537    -2.39385    -1.68617
O      1.49140    -1.50627    -3.21243
O     -0.17609    -0.18438    -2.52139
H      0.23346     0.44460    -3.15266
H      0.25572    -2.25657    -0.67710
H     -1.20592    -2.30781    -1.64690
H      0.17446    -3.37904    -2.02995
C     -1.56151     0.81729     4.07076
C     -2.36950     2.01288     4.46784
O     -1.50233    -0.21211     4.69892
O     -0.92003     1.00127     2.90999
H     -0.38220     0.21662     2.71282
H     -3.29549     2.00928     3.89463
H     -2.60869     1.95269     5.52457
H     -1.83344     2.93177     4.24679
C      1.94463     1.06869    -4.95879
C      1.88612     0.23932    -6.20055
O      0.95994     1.43655    -4.34028
O      3.17998     1.34128    -4.58105
H      3.16617     1.88016    -3.76161
H      1.90478    -0.80724    -5.90088
H      0.96244     0.43135    -6.73687
H      2.75204     0.43787    -6.82279
