 40
-1146.2800469589517
C      2.03305    -2.50227    -0.87047
C      0.97606    -3.41684    -1.41760
O      2.39246    -1.48306    -1.42687
O      2.51245    -2.91296     0.28926
H      3.17666    -2.26659     0.62692
H      1.34799    -4.43832    -1.45184
H      0.11231    -3.39834    -0.75452
H      0.68406    -3.08740    -2.40811
C      4.68941    -0.07319     0.69502
C      5.94004     0.63226     1.12544
O      4.29516    -1.10782     1.19741
O      4.06135     0.55491    -0.28395
H      3.21298     0.11094    -0.48498
H      6.44203     0.05273     1.89043
H      6.59229     0.77500     0.26673
H      5.68047     1.61564     1.51301
C      0.99022     1.31884    -1.32559
C      1.97267     1.63122    -2.40441
O      1.32000     1.01478    -0.18540
O     -0.26313     1.38502    -1.71069
H     -0.87335     1.10939    -0.98362
H      1.47884     2.13387    -3.22840
H      2.78186     2.23301    -2.00246
H      2.39689     0.68777    -2.74274
C     -5.56196     0.67241     0.13511
C     -6.93973     0.24105    -0.28581
O     -5.30583     1.67984     0.74480
O     -4.63408    -0.22458    -0.24124
H     -3.75495     0.10867     0.01160
H     -7.66317     0.98641     0.02426
H     -6.97329     0.11301    -1.36642
H     -7.17736    -0.72099     0.16564
C     -1.56799     0.47080     1.42145
C     -2.54800     0.24362     2.52700
O     -1.91699     0.52528     0.24393
O     -0.32843     0.60933     1.80721
H      0.28218     0.76163     1.03568
H     -2.04004     0.12807     3.47844
H     -3.23633     1.08536     2.55325
H     -3.13483    -0.64008     2.29014
