 48
-1375.5424729549186
C     -2.87267     0.06802     2.22197
C     -2.74400     1.18204     3.21102
O     -3.94480    -0.27588     1.75190
O     -1.72050    -0.48889     1.90071
H     -1.84716    -1.21648     1.24181
H     -3.69773     1.34805     3.69998
H     -1.96547     0.95379     3.93290
H     -2.45948     2.08055     2.66526
C      2.27649    -1.19391    -0.33293
C      0.78968    -1.20302    -0.19928
O      2.96506    -0.20807    -0.07291
O      2.78560    -2.32294    -0.75417
H      3.77724    -2.27853    -0.83413
H      0.50793    -1.08062     0.84353
H      0.39243    -0.34907    -0.73749
H      0.37856    -2.13155    -0.57534
C      0.76620     2.77568    -0.01669
C      0.30752     4.15091     0.33652
O      0.15037     2.00417    -0.72951
O      1.93867     2.45394     0.51860
H      2.16900     1.54216     0.26519
H     -0.76338     4.13848     0.51538
H      0.85197     4.51966     1.19949
H      0.49395     4.80373    -0.51574
C     -3.31889     2.24383    -0.46133
C     -4.75800     2.00227    -0.80292
O     -2.91210     3.18799     0.17311
O     -2.52698     1.26689    -0.91653
H     -1.59973     1.52447    -0.76813
H     -5.37290     2.77222    -0.34855
H     -4.88945     2.01270    -1.88407
H     -5.05546     1.02148    -0.43807
C      6.16456    -1.35186    -0.70037
C      7.65539    -1.41442    -0.83360
O      5.43845    -2.28723    -0.99380
O      5.71911    -0.19832    -0.23911
H      4.73808    -0.20342    -0.17476
H      8.02866    -2.23242    -0.22283
H      7.90709    -1.63936    -1.86675
H      8.10295    -0.47623    -0.52758
C     -3.13833    -2.47637    -0.62939
C     -3.21158    -3.37802    -1.82845
O     -2.16194    -2.44379     0.10403
O     -4.21098    -1.73278    -0.45193
H     -4.12708    -1.19188     0.37297
H     -2.34443    -3.19222    -2.45704
H     -3.16065    -4.41100    -1.49336
H     -4.12730    -3.20161    -2.37977
