 72
-2063.3223220718246
C      3.73749    -3.22590     0.55167
C      4.98784    -3.72954     1.22306
O      3.65388    -2.18071    -0.03892
O      2.71515    -4.08386     0.70382
H      1.91944    -3.69467     0.28921
H      4.79824    -3.87878     2.28283
H      5.28051    -4.68823     0.79894
H      5.78904    -3.01007     1.09488
C     -2.65660     2.60852    -1.22825
C     -2.87576     1.96034    -2.55302
O     -1.78077     3.45389    -1.02623
O     -3.46695     2.21046    -0.28061
H     -3.28400     2.68123     0.57643
H     -2.20336     1.10382    -2.62614
H     -3.90038     1.61373    -2.63984
H     -2.60710     2.64929    -3.34518
C     -2.27841     4.37101     2.24510
C     -2.11880     4.99533     3.59442
O     -2.94593     3.37099     2.03185
O     -1.61490     5.00112     1.29229
H     -1.71884     4.52766     0.44348
H     -2.76951     4.50540     4.30826
H     -1.08216     4.89669     3.91035
H     -2.34640     6.05653     3.53552
C     -1.81089    -1.34102     2.56280
C     -2.91426    -0.36769     2.31189
O     -0.65095    -1.00152     2.73954
O     -2.19193    -2.59771     2.54415
H     -1.41420    -3.18338     2.71832
H     -3.02532    -0.27520     1.23303
H     -3.85219    -0.72179     2.72846
H     -2.64652     0.60441     2.71050
C      1.68293     0.07914    -3.39247
C      2.31962    -1.27926    -3.43313
O      2.20552     1.06576    -2.92901
O      0.45235     0.06791    -3.92396
H      0.11080     0.98182    -3.93233
H      3.19005    -1.29401    -2.78647
H      1.59932    -2.02681    -3.11174
H      2.61416    -1.51060    -4.45799
C      1.01809    -3.80092     3.35142
C      2.05461    -4.78520     3.78487
O     -0.09612    -4.13508     2.98307
O      1.42391    -2.54904     3.38704
H      0.68561    -1.94582     3.13545
H      1.59399    -5.55603     4.39745
H      2.47082    -5.25706     2.89771
H      2.84352    -4.27656     4.32737
C      0.58308     3.63653    -3.82436
C      1.89040     3.86168    -4.50533
O     -0.20722     2.75151    -4.09786
O      0.33654     4.51094    -2.85291
H     -0.48284     4.24206    -2.41406
H      2.25701     4.86030    -4.29607
H      2.59368     3.12143    -4.12742
H      1.77349     3.70119    -5.57367
C      0.47156     0.84215     0.25278
C      1.61434     0.06116     0.79361
O     -0.45907     0.38068    -0.38380
O      0.53313     2.14626     0.51599
H     -0.18504     2.59283     0.04392
H      1.52355    -0.98002     0.52104
H      2.54494     0.44861     0.38218
H      1.64137     0.15779     1.87680
C     -0.63149    -3.12414    -0.49468
C     -1.27825    -4.47085    -0.47851
O      0.57209    -2.95403    -0.45965
O     -1.49970    -2.13029    -0.52259
H     -1.04450    -1.26107    -0.49512
H     -2.16870    -4.48134    -1.10074
H     -0.57396    -5.22930    -0.80400
H     -1.56976    -4.68496     0.54952
