 48
-1375.5431720001034
C     -0.62588    -2.05641    -0.96778
C     -2.00454    -2.30300    -1.47630
O     -0.38637    -1.62326     0.14540
O      0.32285    -2.33744    -1.84346
H      1.19010    -2.07447    -1.47654
H     -2.34040    -1.39601    -1.97786
H     -2.00464    -3.12927    -2.18214
H     -2.67325    -2.49749    -0.64790
C      3.91822    -1.30329     2.40062
C      4.11871    -1.67967     3.83675
O      4.18396    -0.19477     1.95947
O      3.43253    -2.28382     1.66939
H      3.22107    -1.96400     0.76376
H      3.14459    -1.84595     4.29100
H      4.67538    -2.61108     3.89868
H      4.64205    -0.88953     4.36145
C     -1.83475     1.83956    -2.15714
C     -2.58147     2.56385    -3.23609
O     -1.40848     0.71080    -2.26470
O     -1.71108     2.57780    -1.05662
H     -1.24680     2.07640    -0.35396
H     -3.63851     2.57802    -2.97630
H     -2.23718     3.59305    -3.30581
H     -2.44880     2.05184    -4.18339
C      0.56198     1.01138     1.75717
C      1.26859     1.96950     2.66175
O     -0.18037     1.34452     0.85531
O      0.83930    -0.25210     2.02427
H      0.39999    -0.81060     1.34542
H      2.33584     1.92340     2.45388
H      0.91218     2.97962     2.49123
H      1.11507     1.68684     3.70024
C      2.58370    -0.14291    -0.98179
C      1.83279     0.36932    -2.16482
O      2.68626    -1.34488    -0.74139
O      3.10505     0.78087    -0.22050
H      3.56204     0.39298     0.57612
H      0.78002     0.48074    -1.89570
H      2.21474     1.33482    -2.47563
H      1.88884    -0.35013    -2.97419
C     -4.38478     0.39361    -0.14195
C     -3.29842     0.56790     0.87810
O     -4.97323     1.26985    -0.71952
O     -4.66316    -0.91094    -0.37997
H     -5.36083    -0.91862    -1.04705
H     -3.09176     1.61993     1.02526
H     -3.59982     0.11525     1.82122
H     -2.38755     0.08065     0.54755
