 48
-1375.5383238119514
C     -1.46896    -0.08905     1.40024
C     -2.23248     1.19771     1.39285
O     -2.02234    -1.17653     1.43002
O     -0.15740     0.05548     1.38255
H      0.28688    -0.82643     1.40026
H     -2.57931     1.38569     2.40703
H     -1.60983     2.02312     1.07411
H     -3.10249     1.09571     0.75184
C      0.41415    -3.40473     1.63438
C      1.15995    -4.68608     1.78086
O      0.98414    -2.32712     1.47085
O     -0.88298    -3.51855     1.67696
H     -1.32386    -2.62758     1.58336
H      1.31020    -5.10363     0.78459
H      2.12998    -4.49852     2.23132
H      0.58903    -5.39554     2.37175
C     -1.92274     6.87105    -0.48049
C     -2.84300     8.03434    -0.70277
O     -0.82613     6.80307    -1.01587
O     -2.40122     5.95131     0.32842
H     -1.74652     5.21443     0.44577
H     -3.03846     8.12893    -1.76793
H     -3.76819     7.89690    -0.15546
H     -2.34195     8.94445    -0.38266
C      0.37156     3.83811    -0.04916
C      1.18706     2.58568     0.03151
O     -0.63698     4.00504     0.62679
O      0.81988     4.72501    -0.90292
H      0.21356     5.51530    -0.93724
H      1.28278     2.27533     1.06629
H      0.65415     1.78902    -0.48151
H      2.15777     2.73726    -0.42793
C      3.39076    -2.59899    -1.14380
C      4.64923    -2.39804    -1.93529
O      2.59244    -3.48679    -1.36117
O      3.23677    -1.70817    -0.16953
H      2.42515    -1.90528     0.32773
H      5.24683    -3.30503    -1.88151
H      4.38998    -2.24455    -2.98028
H      5.20846    -1.55106    -1.55513
C     -0.75731    -4.82808    -1.50645
C     -2.25781    -4.72813    -1.50995
O     -0.13689    -5.86022    -1.47905
O     -0.18347    -3.60831    -1.49661
H      0.78695    -3.70285    -1.50337
H     -2.58852    -4.39421    -0.52750
H     -2.59297    -3.99669    -2.24242
H     -2.68740    -5.70199    -1.72284
