 48
-1375.5461535443108
C     -1.95476     3.72118     2.47929
C     -1.66275     4.59602     3.65932
O     -1.28263     3.74670     1.45815
O     -2.99831     2.93574     2.64266
H     -3.13192     2.37265     1.84213
H     -2.09938     5.57537     3.47515
H     -2.10003     4.17358     4.55656
H     -0.59022     4.71899     3.76354
C      2.13064     0.13391    -0.06055
C      1.15646     1.26016    -0.04069
O      2.97191     0.00078    -0.93438
O      1.97679    -0.72885     0.92570
H      2.59689    -1.49582     0.80634
H      0.20890     0.87344    -0.40935
H      1.00909     1.63810     0.96543
H      1.47333     2.04915    -0.71051
C     -2.83424     1.75060    -0.66377
C     -3.31153     1.05088    -1.88940
O     -3.18670     1.40531     0.46631
O     -2.01987     2.75113    -0.86161
H     -1.76508     3.17766     0.00239
H     -4.35046     1.32817    -2.06183
H     -2.69323     1.31815    -2.73609
H     -3.26472    -0.01944    -1.71446
C     -1.22629    -1.39819     1.41656
C     -0.57324    -2.40095     2.31658
O     -1.53097    -1.59814     0.25571
O     -1.45078    -0.22863     2.00417
H     -1.97209     0.33736     1.40510
H     -0.97692    -2.31321     3.32079
H     -0.72094    -3.40418     1.92910
H      0.49475    -2.19446     2.35784
C      4.01316    -3.10356    -0.60098
C      4.62956    -4.44761    -0.86310
O      3.60097    -2.77962     0.50334
O      3.94409    -2.32506    -1.65910
H      3.59309    -1.43048    -1.40572
H      4.96549    -4.52110    -1.89088
H      5.45960    -4.59486    -0.17712
H      3.89020    -5.21632    -0.65145
C      0.16895    -1.00561    -2.60759
C      1.06011    -1.27163    -3.78691
O     -0.55490    -0.04072    -2.50860
O      0.27558    -1.94058    -1.66255
H     -0.41359    -1.77868    -0.98025
H      0.91732    -0.49679    -4.53306
H      2.09992    -1.27729    -3.46394
H      0.83877    -2.24758    -4.21682
