 80
-2292.5952941246605
C      1.17084    -0.32211    -2.54625
C      1.64009    -1.58751    -3.18353
O      1.09532     0.73533    -3.14379
O      0.83368    -0.45289    -1.27659
H      0.43974     0.39102    -0.93377
H      1.79969    -1.42639    -4.24603
H      2.57122    -1.89257    -2.70921
H      0.90721    -2.37311    -3.02166
C     -4.58355     2.54582     1.21197
C     -4.78925     3.27859     2.49663
O     -4.30327     1.34761     1.17475
O     -4.69903     3.28480     0.13982
H     -4.49126     2.76462    -0.68189
H     -5.29971     4.21899     2.31873
H     -5.34184     2.65148     3.19007
H     -3.80373     3.46822     2.92190
C      1.05791    -6.86119    -1.11509
C      1.84842    -8.06091    -1.54480
O      0.86166    -6.60947     0.06634
O      0.61643    -6.12030    -2.10496
H      0.14164    -5.31195    -1.76364
H      1.85355    -8.14604    -2.62481
H      2.86387    -7.95395    -1.16936
H      1.42351    -8.95009    -1.08711
C      1.03379     4.85058     2.19580
C      1.89111     6.06807     2.41611
O      1.13129     4.11772     1.23725
O      0.16068     4.67384     3.18791
H     -0.40490     3.89026     3.00590
H      2.31393     6.05513     3.41910
H      2.68399     6.09403     1.67607
H      1.28141     6.96672     2.32736
C     -0.71657    -3.67073     0.00642
C     -1.39161    -2.40623     0.42214
O     -0.56185    -3.96126    -1.17234
O     -0.29567    -4.42479     0.99907
H      0.11715    -5.26031     0.65479
H     -1.40033    -2.29928     1.50207
H     -0.86059    -1.57857    -0.03465
H     -2.40717    -2.39608     0.03391
C     -1.12411     1.49265     2.72860
C      0.29846     1.17626     3.04378
O     -1.57157     2.62578     2.67325
O     -1.87504     0.42477     2.50554
H     -2.73758     0.71479     2.16945
H      0.66131     1.83723     3.82415
H      0.40460     0.13773     3.33967
H      0.89586     1.34758     2.14884
C      3.46757     0.94576    -0.18276
C      3.37183     2.35866    -0.65850
O      3.91933     0.05145    -0.88233
O      3.01944     0.75258     1.03665
H      3.08564    -0.20628     1.28677
H      2.61558     2.40916    -1.43676
H      3.09993     3.01957     0.15583
H      4.32214     2.65273    -1.09887
C     -3.50345     0.78590    -1.99962
C     -2.79393     0.21362    -3.18741
O     -3.92866     1.92971    -1.97293
O     -3.61013    -0.04901    -0.98833
H     -3.90585     0.43363    -0.18106
H     -1.79812     0.64612    -3.24252
H     -2.71546    -0.86335    -3.09223
H     -3.32486     0.48233    -4.09671
C     -0.45786     2.82600    -1.17152
C     -1.15939     4.01805    -0.61511
O     -0.35276     1.76327    -0.57664
O      0.01625     3.01402    -2.38165
H      0.44420     2.18326    -2.71109
H     -1.29174     3.88073     0.45154
H     -0.56990     4.90912    -0.81301
H     -2.12309     4.12177    -1.11101
C      3.45799    -2.70818     0.89629
C      3.36168    -4.14464     1.31666
O      3.24560    -1.78410     1.66690
O      3.78093    -2.53048    -0.36778
H      3.86899    -1.56392    -0.56952
H      3.60354    -4.80362     0.49179
H      4.04153    -4.31056     2.14987
H      2.35233    -4.34160     1.66606
