 48
-1375.5402580011094
C      0.05896     0.06886     2.36364
C     -1.20800     0.56291     2.99507
O      1.02744     0.76641     2.16679
O      0.00629    -1.22471     2.03202
H      0.82247    -1.47232     1.56576
H     -1.00483     0.80585     4.03820
H     -1.51521     1.47607     2.49335
H     -1.98983    -0.18582     2.93949
C      1.25170    -1.88983    -2.26230
C      0.39675    -2.17367    -3.45358
O      1.82170    -0.82248    -2.09992
O      1.32931    -2.88184    -1.39500
H      1.79225    -2.56957    -0.58458
H     -0.57749    -1.72486    -3.27077
H      0.83007    -1.71081    -4.33469
H      0.28182    -3.24378    -3.58695
C      0.73248     3.10356    -0.04051
C      0.94901     1.83565    -0.79426
O     -0.33861     3.52209     0.35568
O      1.85824     3.77837     0.20981
H      1.61915     4.55891     0.72431
H      1.18242     1.07454    -0.05923
H      0.04345     1.55439    -1.31720
H      1.79069     1.90337    -1.47498
C     -3.19925     1.69046    -0.47466
C     -4.64382     1.30290    -0.47300
O     -2.34740     1.16123    -1.17269
O     -2.92152     2.67792     0.35595
H     -1.97245     2.93437     0.30023
H     -5.20281     1.95805     0.18557
H     -5.02879     1.36363    -1.48933
H     -4.72476     0.26920    -0.14559
C      3.30152    -0.96478     0.82155
C      4.20688    -0.69873     1.97777
O      2.50470    -1.90113     0.80578
O      3.40848    -0.10364    -0.15524
H      2.77008    -0.30872    -0.89659
H      3.75180     0.08730     2.57826
H      4.31565    -1.59420     2.57905
H      5.16834    -0.34036     1.62281
C     -2.31677    -1.95972    -0.13274
C     -1.97381    -3.40870     0.04636
O     -3.20872    -1.39250     0.45136
O     -1.51890    -1.35197    -1.01783
H     -1.79577    -0.41049    -1.09444
H     -1.06213    -3.49441     0.63554
H     -2.78364    -3.91236     0.56521
H     -1.79029    -3.87406    -0.91911
