 40
-1146.2776916595653
C      1.06455    -2.28593    -2.01433
C     -0.14850    -2.71337    -2.76870
O      2.01041    -1.72444    -2.54769
O      1.01854    -2.53683    -0.72036
H      1.88111    -2.30751    -0.28136
H      0.06401    -2.70173    -3.83173
H     -0.47229    -3.69472    -2.43831
H     -0.96075    -2.02605    -2.54428
C      4.21240    -1.26447    -0.09862
C      5.47668    -0.93746     0.64167
O      3.28988    -1.86585     0.43462
O      4.17461    -0.83443    -1.33859
H      3.36123    -1.17157    -1.80427
H      6.15181    -0.37351     0.00893
H      5.22381    -0.36912     1.53340
H      5.94331    -1.86349     0.96836
C      0.23711     2.01689     0.10928
C      1.32922     1.17529    -0.47670
O     -0.83229     1.52777     0.45151
O      0.52616     3.28907     0.22148
H     -0.23743     3.79757     0.60723
H      0.94427     0.65835    -1.35019
H      2.18985     1.77556    -0.74326
H      1.60487     0.41588     0.24828
C     -2.79584    -2.69712     0.26444
C     -1.77783    -2.12132     1.20311
O     -2.57070    -3.21007    -0.80222
O     -4.05623    -2.57582     0.74053
H     -4.63182    -2.96218     0.06941
H     -0.78565    -2.38605     0.86148
H     -1.87676    -1.03713     1.22453
H     -1.94576    -2.49844     2.21103
C     -2.59197     4.14501     1.55256
C     -3.71240     4.97279     2.11088
O     -1.51780     4.63969     1.24318
O     -2.87390     2.86784     1.43378
H     -2.10055     2.36215     1.05925
H     -3.37099     5.45731     3.02224
H     -3.95954     5.75642     1.39916
H     -4.57825     4.35303     2.31135
