 40
-1146.2870875000935
C      2.21826    -0.97499     1.02104
C      2.83593    -1.25948     2.35373
O      2.68593    -0.23700     0.18847
O      1.05580    -1.62375     0.85695
H      0.75108    -1.47809    -0.05342
H      3.85099    -0.87712     2.36053
H      2.25846    -0.74892     3.12220
H      2.82141    -2.32551     2.56570
C      0.31966    -0.84757    -2.72976
C      1.79233    -0.67128    -2.88973
O     -0.17711    -1.42694    -1.76217
O     -0.40315    -0.35104    -3.69676
H     -1.37604    -0.46534    -3.51008
H      2.25840    -1.65399    -2.89251
H      2.01232    -0.13890    -3.80844
H      2.18085    -0.14114    -2.02325
C      1.92056     2.66718     1.52630
C      3.23788     3.20559     1.06681
O      0.89087     2.77015     0.87870
O      1.98589     2.04467     2.68680
H      1.10979     1.63284     2.90563
H      3.77608     3.64994     1.89958
H      3.82021     2.36680     0.68901
H      3.08312     3.92490     0.27088
C     -3.45247    -0.88467    -2.08158
C     -4.91626    -0.78692    -1.77689
O     -2.98040    -0.62700    -3.17643
O     -2.72697    -1.27702    -1.05048
H     -1.77545    -1.34868    -1.31009
H     -5.30895    -1.78344    -1.58589
H     -5.06208    -0.19442    -0.87712
H     -5.43669    -0.34002    -2.61512
C     -1.06315     0.45623     2.26349
C     -2.08376    -0.62392     2.43125
O     -0.26346     0.74404     3.14147
O     -1.09776     1.04447     1.08951
H     -0.37653     1.72848     1.01838
H     -1.59328    -1.57478     2.22878
H     -2.44450    -0.62995     3.45708
H     -2.89580    -0.48930     1.72603
