 72
-2063.33286096258
C      2.14478    -4.73403     1.82849
C      2.93904    -5.45069     2.87448
O      1.02878    -4.28835     2.03831
O      2.77716    -4.58830     0.68099
H      2.19922    -4.11412     0.02729
H      3.47842    -4.69262     3.44121
H      2.26951    -5.97438     3.54891
H      3.65336    -6.13189     2.42298
C     -3.64782     2.21586    -0.99527
C     -3.83172     1.20274    -2.07118
O     -3.32711     1.93909     0.15732
O     -3.83115     3.45333    -1.39188
H     -3.73037     4.09223    -0.63888
H     -2.92278     1.17990    -2.66888
H     -3.99316     0.22420    -1.63472
H     -4.66158     1.49069    -2.71167
C     -2.75223     4.95931     1.57695
C     -2.34276     6.01010     2.56395
O     -3.41530     5.19847     0.58023
O     -2.31174     3.75074     1.87867
H     -2.69350     3.08811     1.25659
H     -2.70794     5.74543     3.55345
H     -1.25695     6.05368     2.61656
H     -2.74143     6.97004     2.26037
C      1.03631     0.03738     1.51856
C     -0.25363     0.74148     1.77170
O      1.68231    -0.50694     2.39572
O      1.41211     0.04600     0.24674
H      2.26562    -0.44225     0.14917
H     -0.87280     0.13761     2.42782
H     -0.06688     1.69732     2.25733
H     -0.76851     0.92162     0.83550
C     -3.87746    -1.71973     0.80630
C     -3.76317    -2.97820     1.61346
O     -4.08602    -1.67156    -0.38216
O     -3.69317    -0.62022     1.55463
H     -3.74289     0.15907     0.98144
H     -4.25122    -2.85443     2.57716
H     -4.20183    -3.80090     1.05899
H     -2.70982    -3.18854     1.78973
C      4.34554    -1.81118     0.96965
C      5.66327    -2.48847     0.75380
O      3.78625    -1.16065     0.10340
O      3.83042    -2.01565     2.16475
H      2.99241    -1.49233     2.26431
H      6.30992    -2.35671     1.61733
H      5.47748    -3.55283     0.61978
H      6.12633    -2.09024    -0.14156
C      2.21519     0.28199    -2.98562
C      2.96871    -0.98178    -3.23499
O      1.00125     0.37729    -3.11130
O      2.98415     1.27947    -2.63015
H      2.43885     2.08469    -2.44542
H      2.31551    -1.83369    -3.08605
H      3.32370    -0.97854    -4.26514
H      3.81947    -1.03411    -2.56503
C      0.24073     3.41499    -2.08651
C     -0.52486     4.63945    -1.68882
O      1.45720     3.37487    -2.09173
O     -0.52714     2.38820    -2.40288
H      0.03071     1.61263    -2.68706
H     -0.92708     4.47860    -0.69220
H      0.12910     5.50409    -1.67544
H     -1.36323     4.79553    -2.35779
C      0.18639    -2.71673    -0.74759
C     -0.56092    -1.89106    -1.73898
O      1.18458    -3.36199    -1.01939
O     -0.33252    -2.67513     0.46545
H      0.17215    -3.26449     1.08462
H     -0.15963    -2.05551    -2.73222
H     -1.61770    -2.13401    -1.70430
H     -0.43234    -0.84452    -1.47966
