 80
-2292.580606789175
C      2.72779    -1.85537     2.50758
C      1.46615    -2.35259     3.13376
O      3.48777    -2.56894     1.87077
O      2.94299    -0.56527     2.69255
H      3.78472    -0.28497     2.26681
H      1.14956    -1.67071     3.91487
H      0.69820    -2.39564     2.36444
H      1.62689    -3.35773     3.51391
C     -7.70777    -0.11825     0.25209
C     -9.16371    -0.13348    -0.11323
O     -7.33020    -0.23252     1.40768
O     -6.89818     0.02975    -0.77497
H     -5.94840     0.04390    -0.48366
H     -9.28629    -0.06144    -1.18761
H     -9.61266    -1.04875     0.26387
H     -9.65784     0.69910     0.38169
C     -1.65988    -1.91511    -2.63346
C     -2.89074    -1.23243    -3.12866
O     -1.28136    -1.82220    -1.47203
O     -1.01131    -2.59786    -3.54233
H     -0.20331    -3.01520    -3.14560
H     -3.31664    -1.78091    -3.96459
H     -3.60649    -1.13920    -2.31829
H     -2.60922    -0.23644    -3.46251
C      4.08966     2.85392    -0.40129
C      3.41991     4.10650    -0.89114
O      4.59371     2.01959    -1.11460
O      4.04373     2.74910     0.93362
H      4.49068     1.92551     1.18806
H      3.61785     4.23569    -1.94896
H      2.34659     4.01583    -0.73201
H      3.77031     4.96686    -0.32600
C      1.44708    -3.61493    -1.25061
C      2.64165    -4.33190    -0.71296
O      1.14910    -3.61560    -2.43414
O      0.75608    -2.96857    -0.33500
H     -0.03335    -2.51780    -0.74264
H      3.51480    -3.68726    -0.80709
H      2.50678    -4.54928     0.33967
H      2.81758    -5.23605    -1.28891
C     -3.97533    -0.07143     1.16792
C     -2.52357    -0.04706     1.51964
O     -4.37661     0.11483     0.02603
O     -4.77031    -0.29950     2.18426
H     -5.72284    -0.28059     1.90419
H     -1.93778    -0.26223     0.63410
H     -2.26880     0.95048     1.87036
H     -2.31932    -0.75395     2.31470
C     -1.85328     2.47754    -1.53353
C     -3.08272     3.32383    -1.39387
O     -1.47818     2.02813    -2.60174
O     -1.23624     2.24055    -0.38796
H     -0.38146     1.76003    -0.55078
H     -2.94216     4.05725    -0.60531
H     -3.30594     3.80501    -2.34068
H     -3.91233     2.67688    -1.11652
C     -0.24549     1.82684     3.51818
C      0.52843     2.01737     2.25337
O     -0.13265     0.90797     4.28838
O     -1.14059     2.82051     3.73852
H     -1.57087     2.61192     4.57739
H      0.42493     1.12899     1.63784
H      0.16960     2.87673     1.69631
H      1.58401     2.11962     2.48982
C      5.76851    -0.50754     0.53639
C      6.88501     0.02307    -0.30154
O      5.23822     0.13956     1.43449
O      5.38415    -1.72424     0.21921
H      4.67779    -2.05617     0.83211
H      7.45518    -0.79124    -0.73539
H      6.43667     0.62238    -1.09346
H      7.51040     0.67499     0.29984
C      1.36597     0.50802    -2.07008
C      2.65098    -0.23812    -2.20241
O      1.04790     1.09447    -1.04824
O      0.60446     0.46871    -3.13970
H     -0.18755     1.04091    -2.99307
H      2.49078    -1.14147    -2.78050
H      3.38933     0.39318    -2.68937
H      3.00655    -0.46689    -1.20348
