 64
-1834.0557811097394
C     -3.62017    -1.06980    -0.89423
C     -3.97067    -2.47620    -1.24365
O     -3.82819    -0.59119     0.22109
O     -3.05647    -0.38399    -1.85460
H     -2.82198     0.53330    -1.56087
H     -3.12821    -3.09838    -0.94405
H     -4.84860    -2.78646    -0.68613
H     -4.12125    -2.56840    -2.31355
C      2.12273     1.03557    -0.15562
C      1.11650     2.02796    -0.62426
O      2.47619     0.91308     1.01383
O      2.61350     0.28581    -1.12071
H      3.21909    -0.39993    -0.76191
H      0.90546     2.73756     0.16290
H      1.47729     2.53127    -1.51348
H      0.19774     1.51323    -0.89287
C      1.84930    -4.30095    -0.70094
C      0.82815    -5.26626    -1.22380
O      2.22482    -4.25093     0.44770
O      2.29339    -3.47398    -1.65581
H      2.93223    -2.86052    -1.25787
H     -0.14313    -4.77124    -1.21635
H      1.06392    -5.54781    -2.24579
H      0.78209    -6.13583    -0.57667
C      4.42132    -1.96602     1.01879
C      5.12284    -3.19561     1.48573
O      4.13911    -1.75859    -0.15626
O      4.11491    -1.12191     1.98018
H      3.61340    -0.35235     1.63417
H      6.00110    -3.36406     0.86806
H      5.39176    -3.09885     2.53089
H      4.44717    -4.03703     1.34605
C     -0.80254    -1.89822     1.29317
C      0.56032    -2.04566     1.88997
O     -1.20784    -2.56897     0.37526
O     -1.53606    -0.93479     1.87721
H     -2.37404    -0.83601     1.39302
H      0.77521    -1.25315     2.59300
H      0.64470    -3.01587     2.37127
H      1.27994    -2.03823     1.07809
C     -2.98267     2.62968    -0.06124
C     -2.78324     4.08007     0.19872
O     -2.51596     2.04813    -1.03691
O     -3.69719     2.00319     0.84481
H     -3.77754     1.04416     0.61873
H     -2.08888     4.17464     1.03097
H     -2.35784     4.55219    -0.67875
H     -3.72717     4.53931     0.48383
C     -0.53415     1.83766     2.96160
C     -1.63172     1.54600     3.93564
O     -0.64742     2.54297     1.98697
O      0.61277     1.22095     3.27492
H      1.24298     1.37200     2.55449
H     -1.34367     1.87156     4.93486
H     -2.52896     2.06036     3.61342
H     -1.81175     0.47475     3.96302
C     -0.38695     3.98950    -3.29333
C      0.23527     4.36464    -4.61074
O     -0.16864     4.55780    -2.25341
O     -1.20477     2.93015    -3.40883
H     -1.58589     2.71090    -2.54323
H      0.29075     5.44662    -4.68987
H      1.25281     3.97684    -4.63779
H     -0.33001     3.94118    -5.43371
