 80
-2292.5791714717648
C      1.01690     2.96087    -2.52595
C      0.11461     3.41923    -3.62767
O      1.37405     3.66447    -1.60063
O      1.37164     1.69039    -2.65089
H      1.99173     1.45683    -1.92911
H     -0.74840     2.75860    -3.67448
H     -0.20247     4.43960    -3.44203
H      0.64147     3.36020    -4.57938
C     -4.66806     2.35952    -0.47433
C     -5.41085     3.31071     0.40682
O     -4.57703     1.16131    -0.21517
O     -4.11586     2.90290    -1.52712
H     -3.51655     2.25713    -1.98253
H     -5.65427     4.21818    -0.13495
H     -6.30529     2.83101     0.79242
H     -4.76396     3.55487     1.24793
C      0.98890    -6.33478    -1.55264
C      0.80768    -7.34607    -2.64487
O      1.71312    -6.53954    -0.58970
O      0.30767    -5.22081    -1.72546
H      0.45050    -4.60716    -0.96378
H      0.30127    -8.21499    -2.23073
H      0.22785    -6.93056    -3.46074
H      1.78413    -7.67364    -2.99094
C      0.10391     0.10315     0.40828
C     -0.61614     1.31936    -0.06274
O      0.52366    -0.06307     1.52442
O      0.22953    -0.82901    -0.54090
H      0.63380    -1.62199    -0.15344
H     -0.46871     1.47573    -1.11916
H     -1.67988     1.21930     0.11663
H     -0.27439     2.18343     0.48864
C      1.20362    -3.88315     1.40218
C      1.22403    -2.97832     2.58236
O      0.74025    -3.55735     0.30828
O      1.74904    -5.05425     1.60891
H      1.71878    -5.61861     0.79146
H      0.37842    -2.30266     2.55017
H      1.24974    -3.56030     3.49806
H      2.13003    -2.37699     2.50420
C     -2.64615     1.18417     2.73800
C     -1.95411     0.83079     4.01290
O     -2.54135     2.24053     2.14697
O     -3.42406     0.19585     2.29156
H     -3.85794     0.47197     1.46772
H     -1.20153     0.07449     3.79073
H     -1.46598     1.70438     4.42612
H     -2.67218     0.40180     4.70866
C      0.07473     4.20770     2.73468
C      1.11006     5.29418     2.72573
O     -0.01222     3.34403     3.57288
O     -0.75280     4.29620     1.68223
H     -1.43407     3.60585     1.77261
H      0.63467     6.26647     2.61109
H      1.67757     5.25866     3.64990
H      1.77700     5.14785     1.87974
C     -2.42744    -0.04323    -2.46516
C     -1.48588    -0.91622    -3.22827
O     -2.42233     1.17534    -2.57461
O     -3.26995    -0.68570    -1.68606
H     -3.80944    -0.04941    -1.16357
H     -1.52289    -0.65096    -4.28280
H     -0.47635    -0.72303    -2.87220
H     -1.72706    -1.96357    -3.08802
C      2.91836     1.77889     0.59230
C      3.42135     1.17224     1.85429
O      3.01350     1.25057    -0.51046
O      2.35309     2.95412     0.75176
H      1.97301     3.27898    -0.10281
H      3.95513     0.25648     1.63122
H      4.05353     1.88614     2.37826
H      2.55606     0.95667     2.47876
C      3.82854    -2.27784    -0.44012
C      4.09160    -3.66063    -0.95861
O      3.67724    -2.02062     0.73179
O      3.75241    -1.36614    -1.41088
H      3.53192    -0.50282    -1.02744
H      3.13911    -4.14003    -1.17676
H      4.67988    -3.63757    -1.87022
H      4.58579    -4.24449    -0.19142
