 64
-1834.0639608791814
C     -2.46828    -1.67108     1.35615
C     -1.84503    -0.34814     1.05346
O     -1.81069    -2.62746     1.74775
O     -3.76857    -1.72138     1.17282
H     -4.12496    -2.61512     1.42074
H     -2.57278     0.30970     0.59479
H     -1.47842     0.07391     1.98545
H     -0.99043    -0.49227     0.40385
C      3.32829     1.96821     1.93465
C      4.59258     1.47108     2.55199
O      2.22238     1.76953     2.43492
O      3.47981     2.62703     0.81296
H      2.61010     2.96985     0.48264
H      4.67818     0.40840     2.32664
H      5.44825     2.00601     2.15431
H      4.53065     1.56863     3.63179
C      1.47510     0.00593    -1.52533
C      2.75787    -0.15969    -0.77487
O      0.47656     0.49996    -1.05544
O      1.56407    -0.41195    -2.78753
H      0.69780    -0.32046    -3.23869
H      3.44163     0.62661    -1.07963
H      2.56233    -0.06715     0.28266
H      3.22096    -1.12109    -0.97160
C      0.03694     3.19546     0.41642
C     -1.23272     3.58160    -0.26536
O      1.14665     3.44793    -0.04966
O     -0.12821     2.58004     1.55686
H      0.74225     2.28357     1.92219
H     -1.95711     2.78346    -0.15438
H     -1.63429     4.47506     0.21138
H     -1.03926     3.77549    -1.31318
C     -4.04450    -4.99378     2.42717
C     -4.66493    -6.27547     2.90442
O     -4.70191    -4.12643     1.87167
O     -2.75412    -4.90268     2.65980
H     -2.39092    -4.03916     2.31846
H     -3.92379    -6.89586     3.39451
H     -5.47938    -6.04122     3.58521
H     -5.09337    -6.79670     2.05186
C      1.35938     2.77398    -3.57479
C      1.95578     2.41000    -4.89841
O      0.16658     2.87006    -3.37266
O      2.26905     2.96896    -2.62716
H      1.81786     3.16680    -1.78909
H      2.98587     2.74309    -4.96381
H      1.92446     1.32511    -4.99157
H      1.35545     2.83571    -5.69701
C      2.13728    -1.68774     2.71439
C      1.70390    -3.11239     2.89523
O      3.19340    -1.33909     2.24115
O      1.19721    -0.82340     3.12482
H      1.52149     0.07898     2.97514
H      2.51414    -3.77850     2.61785
H      1.41670    -3.27550     3.93189
H      0.83047    -3.30722     2.27721
C     -1.94474     0.19568    -3.78482
C     -3.18307    -0.64206    -3.92632
O     -0.84010    -0.16955    -4.13786
O     -2.18124     1.37402    -3.22875
H     -1.34820     1.87579    -3.16814
H     -3.14613    -1.19087    -4.86270
H     -3.21524    -1.36712    -3.11437
H     -4.06523    -0.01422    -3.87192
