 56
-1604.8034634864782
C      4.11514     3.80683     0.54564
C      4.73849     4.89169     1.37113
O      3.39336     4.04681    -0.41102
O      4.41274     2.58801     0.94588
H      3.98616     1.91560     0.36572
H      5.27790     5.57016     0.71585
H      3.94677     5.46232     1.85076
H      5.40073     4.46851     2.11724
C     -2.48996    -3.41182     0.17254
C     -1.64012    -4.62115     0.39728
O     -2.32968    -2.65981    -0.77811
O     -3.40071    -3.21764     1.09896
H     -3.99646    -2.46573     0.83972
H     -0.75842    -4.30410     0.95072
H     -2.17817    -5.35634     0.98618
H     -1.32027    -5.03228    -0.55501
C      3.43110    -2.71417     0.04218
C      4.03654    -4.08527     0.06007
O      2.48769    -2.39082     0.73525
O      4.02364    -1.89104    -0.80916
H     -0.16721     2.67305     0.55426
H      4.75878    -4.19552    -0.74056
H      4.52081    -4.23905     1.02136
H      3.24609    -4.82520    -0.03065
C     -0.37691    -0.45978     1.66914
C     -1.74923    -0.22078     2.21196
O      0.29839     0.37591     1.11330
O      0.01201    -1.72655     1.83713
H      0.91231    -1.85004     1.47690
H     -1.83236     0.79400     2.58083
H     -2.47067    -0.31679     1.40716
H     -1.99169    -0.93919     2.98669
C     -4.76088    -0.44908    -0.58330
C     -5.65536     0.70271    -0.88888
O     -4.96899    -1.23956     0.31805
O     -3.68893    -0.52638    -1.36566
H     -3.16383    -1.35373    -1.16051
H     -5.76445     0.82234    -1.96332
H     -6.61695     0.55585    -0.40960
H     -5.17998     1.59755    -0.49033
C     -2.06783     2.29176    -0.26114
C     -0.97452     3.24422     0.10064
O     -3.02653     2.04464     0.43258
O     -1.86270     1.71419    -1.45446
H     -2.55747     1.04608    -1.58538
H      3.63523    -0.99254    -0.73368
H     -0.58521     3.72911    -0.78803
H     -1.34844     3.97033     0.81600
C      2.23818     1.02784    -1.30323
C      1.36275    -0.04890    -1.85310
O      3.28865     0.77752    -0.71250
O      1.80889     2.24458    -1.49548
H      2.42915     2.92265    -1.10408
H      0.98523    -0.62737    -1.01305
H      0.54013     0.37798    -2.41241
H      1.95713    -0.70796    -2.48196
