 72
-2063.3293608857493
C      6.06105    -0.79204    -1.45228
C      5.96282     0.42088    -2.31755
O      6.14403    -0.72603    -0.22540
O      6.05718    -1.92970    -2.09518
H      6.12446    -2.70378    -1.46958
H      5.03723     0.93732    -2.07359
H      6.78842     1.08901    -2.08445
H      5.97758     0.13500    -3.36261
C     -0.95077     0.57453    -1.67396
C     -0.02535    -0.47629    -2.19220
O     -0.57492     1.51224    -0.99074
O     -2.21271     0.39999    -2.00939
H     -2.74611     1.18286    -1.74537
H     -0.24455    -1.41822    -1.69990
H     -0.17518    -0.61739    -3.25932
H      0.99736    -0.18964    -1.97734
C     -3.81188     2.05542     2.06468
C     -2.57188     1.76195     2.86217
O     -4.38187     3.11904     2.07349
O     -4.20022     1.01952     1.31300
H     -5.04332     1.22819     0.85444
H     -1.88934     2.60322     2.75935
H     -2.83962     1.67573     3.91579
H     -2.10122     0.84479     2.51986
C     -2.22064    -2.24401     0.31340
C     -3.69774    -2.06474     0.19997
O     -1.49603    -1.43805     0.88262
O     -1.76357    -3.32256    -0.28311
H     -0.78209    -3.40862    -0.15834
H     -4.20750    -3.00987     0.37469
H     -4.02973    -1.30296     0.89151
H     -3.91121    -1.73789    -0.81717
C     -7.07313     2.24121    -0.73751
C     -8.55112     2.48650    -0.82344
O     -6.56539     1.45059     0.02997
O     -6.37916     2.98817    -1.58444
H     -5.42003     2.81022    -1.49255
H     -8.76365     3.51705    -0.54680
H     -8.88927     2.34157    -1.84679
H     -9.07059     1.81031    -0.15556
C      1.57477    -2.62855     0.57774
C      3.06083    -2.77792     0.61650
O      0.85352    -3.44591     0.03036
O      1.11754    -1.54392     1.16630
H      0.12869    -1.49454     1.08836
H      3.52041    -1.96301     0.06478
H      3.41402    -2.72623     1.64103
H      3.33176    -3.72384     0.16806
C      6.29282    -3.91571     0.77592
C      6.36888    -5.13952     1.63818
O      6.16723    -3.96641    -0.43775
O      6.37921    -2.78806     1.45167
H      6.34213    -2.01474     0.83798
H      7.30045    -5.13092     2.19938
H      5.55541    -5.12999     2.35967
H      6.30868    -6.03038     1.02453
C     -3.15288     3.60692    -0.78723
C     -3.90422     4.87959    -0.56768
O     -3.62113     2.65819    -1.41557
O     -1.97204     3.56925    -0.23295
H     -1.44975     2.75925    -0.49692
H     -4.70586     4.97267    -1.29097
H     -4.32071     4.83231     0.43807
H     -3.22911     5.72870    -0.62883
C      3.23056     0.83922     0.63724
C      2.09878     1.53116     1.33347
O      3.30337     0.66393    -0.55859
O      4.16985     0.41806     1.49483
H      4.90258     0.02731     0.98997
H      1.61776     0.82800     2.00765
H      2.48516     2.36276     1.92034
H      1.38202     1.87783     0.59936
