 64
-1834.0559639375072
C     -1.95932    -0.68912     0.01067
C     -0.95774    -1.77108    -0.18393
O     -1.71802     0.49592    -0.21753
O     -3.12195    -1.10924     0.44047
H     -3.79196    -0.37763     0.46834
H     -0.06972    -1.34801    -0.63361
H     -0.70987    -2.21035     0.77768
H     -1.36737    -2.55125    -0.81410
C      2.76242     0.50576     2.44774
C      2.61479     1.57412     3.47532
O      2.13683    -0.54932     2.48351
O      3.63442     0.77969     1.50561
H      3.66446     0.05742     0.83027
H      3.46906     2.24172     3.45102
H      1.70463     2.13035     3.26841
H      2.50025     1.12349     4.45624
C      1.21282     0.44668    -2.53800
C      0.42663     1.47840    -3.27393
O      1.03707    -0.75289    -2.64313
O      2.12975     0.94693    -1.71484
H      2.57996     0.21654    -1.25517
H      1.01854     2.37837    -3.40222
H      0.09393     1.08652    -4.23032
H     -0.44149     1.74140    -2.67208
C      3.10611    -2.22880    -0.23179
C      3.34279    -3.30180    -1.23827
O      3.59522    -1.10308    -0.34209
O      2.33227    -2.55348     0.76968
H      2.24889    -1.80749     1.41776
H      2.95029    -2.95947    -2.19197
H      4.41350    -3.46472    -1.34292
H      2.82605    -4.20854    -0.95301
C      0.82645     3.09543     0.12362
C      2.08346     3.83222     0.48113
O      0.11139     3.37279    -0.80161
O      0.57655     2.07067     0.97020
H     -0.20691     1.59634     0.65169
H      1.82347     4.71019     1.07339
H      2.75599     3.20464     1.05480
H      2.57104     4.16264    -0.43166
C     -4.79147     1.89656    -0.09859
C     -5.91830     2.88012    -0.20945
O     -4.89518     0.86139     0.54250
O     -3.69981     2.25335    -0.74295
H     -2.97140     1.60795    -0.59773
H     -6.17744     3.23009     0.78693
H     -5.63339     3.71316    -0.84100
H     -6.79140     2.37390    -0.61355
C     -1.16929     0.82956     3.59343
C     -2.59573     1.14761     3.26311
O     -0.48226     1.44881     4.36450
O     -0.72515    -0.24611     2.91738
H      0.22285    -0.33886     3.09349
H     -3.21763     0.26434     3.37843
H     -2.95783     1.95030     3.89469
H     -2.67598     1.45167     2.22311
C     -0.19707    -3.89802    -3.12951
C     -0.93876    -5.09348    -3.66706
O      0.46171    -3.91143    -2.11807
O     -0.36607    -2.81177    -3.89445
H      0.12018    -2.07136    -3.48958
H     -1.33766    -4.88614    -4.65366
H     -0.27100    -5.95153    -3.69311
H     -1.75057    -5.33323    -2.98151
