 48
-1375.545331241974
C     -0.44428    -2.80603     2.08910
C     -1.17287    -3.15191     3.34433
O     -0.87380    -2.98700     0.96273
O      0.73644    -2.24220     2.29883
H      1.12450    -2.01768     1.43808
H     -0.48316    -3.20242     4.17931
H     -1.90944    -2.36986     3.52349
H     -1.70073    -4.09206     3.21332
C      1.92579    -1.39457    -1.25142
C      0.57425    -1.68261    -1.81104
O      2.12389    -1.17462    -0.05714
O      2.89263    -1.38750    -2.13770
H      3.76577    -1.16404    -1.72176
H      0.01343    -0.75205    -1.85411
H      0.65308    -2.10746    -2.80634
H      0.04829    -2.34868    -1.13657
C     -0.78110     1.84184     0.61935
C      0.07284     1.39148     1.75628
O     -1.53862     2.79610     0.67990
O     -0.65958     1.08553    -0.45627
H     -1.27765     1.38483    -1.17384
H      1.03283     1.04970     1.38280
H      0.19191     2.19490     2.47641
H     -0.43759     0.55244     2.22652
C     -2.94586     2.99177    -2.28973
C     -3.74612     3.47261    -3.46591
O     -2.31412     1.94343    -2.32063
O     -2.99198     3.78426    -1.24578
H     -2.42578     3.42506    -0.50773
H     -4.41946     2.68125    -3.78507
H     -4.30074     4.36716    -3.20676
H     -3.06785     3.67607    -4.29168
C      5.42101    -0.11368    -0.04916
C      6.72774     0.46727     0.39955
O      5.28069    -0.72888    -1.09089
O      4.43511     0.11012     0.80495
H      3.60616    -0.31729     0.49859
H      7.48327     0.29273    -0.35650
H      6.60945     1.53279     0.58078
H      7.02265     0.00317     1.33799
C     -3.11910    -0.58316     0.87748
C     -4.25857     0.31493     0.49820
O     -2.54780    -0.52163     1.94425
O     -2.78584    -1.42353    -0.09873
H     -2.06224    -2.00218     0.21626
H     -4.94755    -0.18421    -0.17590
H     -4.76994     0.65547     1.39251
H     -3.85715     1.18828    -0.01327
