 64
-1834.069973983394
C     -3.97073    -1.52825    -0.69333
C     -4.82745    -2.19847    -1.72331
O     -3.90555    -1.91021     0.46257
O     -3.29596    -0.50070    -1.16064
H     -2.65072    -0.17012    -0.48719
H     -4.19153    -2.60246    -2.50747
H     -5.40380    -2.99300    -1.26233
H     -5.49222    -1.46798    -2.17437
C      2.93251     2.27985     2.95001
C      2.70380     3.57256     3.65744
O      3.32513     2.21680     1.78544
O      2.66850     1.20674     3.65279
H      2.92150     0.37912     3.17144
H      2.53085     3.40123     4.71379
H      3.55935     4.22387     3.49908
H      1.83343     4.04705     3.20592
C     -3.01004    -0.28470    -4.43917
C     -4.34521    -0.26111    -5.12155
O     -2.40178    -1.32155    -4.22194
O     -2.58286     0.90591    -4.09721
H     -1.70782     0.84590    -3.62768
H     -4.26955     0.29963    -6.05063
H     -4.67255    -1.27365    -5.32259
H     -5.06611     0.24791    -4.48772
C      4.10051    -1.02196     1.33195
C      4.82513    -2.23437     0.85221
O      3.46551    -0.99704     2.38651
O      4.16795     0.01696     0.53925
H      3.79807     0.83113     0.96210
H      4.07983    -2.93283     0.47325
H      5.51621    -1.96945     0.06011
H      5.33684    -2.70557     1.68645
C     -1.66774     0.05528     1.90532
C     -0.79314     0.74405     2.90054
O     -1.60785     0.26718     0.70243
O     -2.50321    -0.80707     2.43743
H     -3.07518    -1.20483     1.73535
H     -1.39716     1.19864     3.68177
H     -0.13163     0.01678     3.36309
H     -0.21286     1.49940     2.38847
C      0.82122    -2.72262     0.93378
C     -0.53913    -3.25334     0.61006
O      1.79623    -2.88350     0.24120
O      0.83821    -2.00898     2.07018
H      1.74419    -1.69407     2.23908
H     -1.06320    -3.56278     1.50756
H     -1.12195    -2.45917     0.15248
H     -0.46551    -4.06433    -0.10405
C      0.39462     3.38625     0.34695
C     -0.64741     3.79270    -0.65097
O      0.32265     3.57996     1.53783
O      1.42538     2.75316    -0.22731
H      2.09052     2.54911     0.45223
H     -0.25931     4.60786    -1.26093
H     -0.86709     2.95814    -1.30983
H     -1.54106     4.11728    -0.12844
C      0.19847    -0.30407    -2.38452
C      1.42029    -0.28794    -1.52795
O     -0.28008     0.71158    -2.86393
O     -0.32214    -1.49996    -2.56358
H     -1.09099    -1.46489    -3.18399
H      2.05404    -1.13416    -1.76850
H      1.94773     0.64953    -1.64721
H      1.11257    -0.38979    -0.48984
