 48
-1375.5488434093245
C     -1.07668    -0.69827     1.20583
C     -0.76624     0.73534     1.48088
O     -1.83079    -1.04816     0.30905
O     -0.45364    -1.55467     1.98835
H     -0.71999    -2.49067     1.77518
H      0.08602     1.02112     0.86959
H     -1.59664     1.36640     1.19217
H     -0.51773     0.87814     2.52657
C      0.79571    -1.47724    -1.73857
C     -0.21313    -1.44373    -2.83745
O      1.41201    -0.48318    -1.36513
O      0.95430    -2.65128    -1.18521
H      1.62608    -2.61892    -0.44353
H     -0.02194    -0.60043    -3.49075
H     -0.19696    -2.37691    -3.39329
H     -1.19213    -1.33184    -2.37384
C      0.50941     2.93098    -1.89482
C      0.45937     4.27904    -2.53553
O      0.22454     2.70034    -0.73567
O      0.90002     1.96647    -2.72612
H      0.94801     1.12401    -2.23582
H      1.15675     4.93667    -2.02031
H      0.71338     4.20756    -3.58725
H     -0.52731     4.70947    -2.39483
C     -1.53802     5.18690     0.86186
C     -2.40033     5.91876     1.85769
O     -1.06544     5.68873    -0.12631
O     -1.37068     3.90583     1.21874
H     -0.80832     3.44245     0.56417
H     -1.97045     5.82713     2.85275
H     -2.47423     6.96159     1.57299
H     -3.39057     5.46810     1.88299
C      2.71554    -1.59441     1.53552
C      3.01677    -1.68286     2.99806
O      2.63453    -2.56472     0.79982
O      2.52604    -0.35737     1.11310
H      2.21018    -0.37127     0.18371
H      3.43501    -2.65547     3.23147
H      3.69245    -0.88454     3.29370
H      2.08126    -1.55585     3.54188
C     -1.40573    -4.30328     0.15403
C     -1.05920    -5.59812    -0.51274
O     -1.04542    -4.00840     1.28198
O     -2.12978    -3.50485    -0.60752
H     -2.15321    -2.60035    -0.20952
H     -0.71429    -6.31507     0.22361
H     -1.91720    -5.98009    -1.05942
H     -0.26048    -5.40163    -1.22724
