 64
-1834.0585966941082
C     -1.63050    -1.48366     0.43130
C     -0.58266    -1.84833     1.42119
O     -1.84079    -2.12217    -0.59549
O     -2.32478    -0.40229     0.72872
H     -2.96873    -0.17907     0.01142
H      0.36989    -1.91394     0.90348
H     -0.54023    -1.10702     2.20753
H     -0.79061    -2.83809     1.82000
C      3.56494    -1.28315     0.85575
C      3.62412    -2.72157     0.48370
O      4.17589    -0.40184     0.25370
O      2.78924    -1.01480     1.88270
H      2.76187    -0.04796     2.06602
H      4.62866    -2.96880     0.15363
H      3.30218    -3.33955     1.31251
H      2.93199    -2.87519    -0.34345
C     -3.90314    -0.04533    -2.36810
C     -4.56566     0.63756    -3.51823
O     -4.01100     0.34131    -1.20664
O     -3.18076    -1.08225    -2.71247
H     -2.73560    -1.49240    -1.93501
H     -5.48064     1.11558    -3.18454
H     -3.88312     1.40141    -3.88584
H     -4.75831    -0.07205    -4.31623
C      3.36303     2.50812     1.68974
C      3.17310     3.96691     1.93244
O      2.74677     1.64563     2.31131
O      4.24637     2.21406     0.76795
H      4.29260     1.23773     0.61696
H      3.49727     4.19099     2.94703
H      3.74658     4.54433     1.21661
H      2.11286     4.19634     1.86437
C      0.34751    -5.11224    -0.04961
C      0.68585    -6.55437    -0.31455
O      0.92985    -4.40817     0.74191
O     -0.67749    -4.70057    -0.79918
H     -0.88477    -3.76700    -0.61908
H     -0.19485    -7.17491    -0.16251
H      0.99769    -6.67182    -1.35076
H      1.48420    -6.86586     0.34938
C     -2.07213     3.12300    -1.31388
C     -1.25313     4.34544    -1.05182
O     -1.92982     2.38562    -2.26176
O     -2.99913     2.90898    -0.36362
H     -3.45363     2.08034    -0.58213
H     -0.48666     4.10827    -0.31416
H     -0.77856     4.66609    -1.97423
H     -1.87942     5.13127    -0.63836
C     -0.67585     2.55487     2.45114
C     -2.13192     2.54461     2.79888
O     -0.11396     3.43463     1.84049
O     -0.04540     1.45942     2.89776
H      0.90519     1.54432     2.71099
H     -2.49881     1.52424     2.79862
H     -2.25458     2.96160     3.79959
H     -2.67562     3.15090     2.08533
C      1.36944    -0.34905    -1.93441
C      0.16564     0.09121    -2.70733
O      1.56985    -1.48671    -1.57850
O      2.20181     0.66488    -1.64971
H      2.95921     0.32158    -1.15102
H     -0.62432     0.35670    -2.01119
H      0.36908     0.96657    -3.31327
H     -0.18749    -0.73371    -3.31475
