 72
-2063.333556810576
C      4.92817    -1.52123     1.00252
C      6.28785    -1.63057     1.63082
O      4.59896    -2.22103     0.05305
O      4.14296    -0.63191     1.56239
H      3.24068    -0.66439     1.15676
H      6.43447    -0.84289     2.36073
H      6.37291    -2.60420     2.10945
H      7.04655    -1.58107     0.85381
C     -4.24308     2.59439    -0.42600
C     -5.60865     2.54190    -1.02902
O     -3.25746     2.09081    -0.96863
O     -4.17692     3.20698     0.72579
H     -3.23961     3.22502     1.07329
H     -5.97724     1.52346    -0.91275
H     -6.27187     3.23963    -0.53013
H     -5.54103     2.74973    -2.09311
C     -1.04004     2.14639     1.52669
C      0.10735     1.81492     2.41742
O     -1.71130     3.15780     1.62544
O     -1.26179     1.23756     0.59018
H     -1.97837     1.53886    -0.01855
H      0.31600     2.65038     3.08042
H     -0.13511     0.92463     2.98913
H      0.97645     1.59129     1.80187
C     -2.73016    -1.55149     2.39110
C     -3.90099    -0.63034     2.27938
O     -2.54671    -2.48105     1.61860
O     -1.90541    -1.25991     3.37441
H     -1.14603    -1.90160     3.39827
H     -4.01934    -0.04199     3.18097
H     -3.73596     0.01844     1.42387
H     -4.79974    -1.19605     2.06021
C     -4.14183    -1.15257    -1.41259
C     -4.20575    -2.62333    -1.69405
O     -4.90553    -0.55754    -0.68661
O     -3.11876    -0.55935    -2.03563
H     -3.13414     0.37687    -1.78288
H     -3.55887    -3.14081    -0.98508
H     -5.22335    -2.97416    -1.55356
H     -3.85439    -2.83423    -2.69992
C      0.51691    -3.51557     2.30269
C      1.91105    -4.03139     2.12494
O      0.15211    -2.92131     3.30428
O     -0.26473    -3.75168     1.26969
H     -1.14548    -3.31551     1.39981
H      2.45219    -3.34550     1.47641
H      2.41595    -4.08039     3.08247
H      1.89526    -5.00334     1.64429
C      3.96349     0.83661    -2.57940
C      5.17690     0.04577    -2.94778
O      3.08421     1.12148    -3.37409
O      3.92626     1.17950    -1.30963
H      3.11002     1.70098    -1.11704
H      6.06416     0.49860    -2.51406
H      5.06873    -0.95353    -2.53044
H      5.26611    -0.02110    -4.02675
C      1.02844     3.14136    -1.80978
C     -0.07700     4.09832    -1.49308
O      1.75586     2.65898    -0.95281
O      1.13104     2.86023    -3.08704
H      1.87550     2.22066    -3.23836
H      0.02269     4.99373    -2.10299
H     -1.03052     3.63573    -1.73291
H     -0.04662     4.34926    -0.44166
C      1.60774    -1.12595    -0.73750
C      0.38857    -0.70398    -1.47558
O      1.78090    -0.87924     0.44441
O      2.49406    -1.76832    -1.46618
H      3.28611    -1.98872    -0.91321
H     -0.37618    -0.40227    -0.77317
H      0.65702     0.14845    -2.09650
H      0.01777    -1.49316    -2.12193
