 48
-1375.543169758396
C     -0.83922    -1.23820     1.34689
C     -1.69047    -1.53295     2.53734
O     -1.04720    -1.66158     0.22339
O      0.21727    -0.48593     1.62371
H      0.58047    -0.14021     0.78955
H     -1.91263    -0.60222     3.05173
H     -2.60734    -2.01907     2.22625
H     -1.13226    -2.17478     3.21987
C      2.43735    -1.95614    -0.81305
C      1.48603    -2.77345    -1.62746
O      2.26391    -0.75085    -0.61337
O      3.44801    -2.61880    -0.32148
H      4.08410    -2.03000     0.17933
H      0.51351    -2.74093    -1.14016
H      1.37552    -2.31541    -2.60803
H      1.84003    -3.79388    -1.71779
C     -0.24355     1.36577    -1.63737
C     -1.14571     2.27255    -2.39947
O     -0.09571     1.39328    -0.42768
O      0.40349     0.48456    -2.38703
H      0.97935    -0.03788    -1.80171
H     -2.15496     2.14528    -2.01218
H     -0.86403     3.30400    -2.19782
H     -1.10229     2.06016    -3.46214
C     -3.05047     2.21476     1.18173
C     -4.16781     2.32954     2.17440
O     -3.14425     2.47246     0.00530
O     -1.92889     1.75869     1.75485
H     -1.24574     1.62806     1.07048
H     -4.66377     1.36144     2.23529
H     -3.77863     2.58238     3.15678
H     -4.88429     3.07129     1.83681
C      5.32031     0.09073     0.82063
C      6.47309     0.88809     1.34605
O      5.22123    -1.11879     0.94889
O      4.41656     0.82760     0.19890
H      3.66313     0.27280    -0.08680
H      6.95186     1.41885     0.52637
H      6.10825     1.63159     2.05114
H      7.18181     0.22877     1.83178
C     -3.90690    -0.48003    -0.84912
C     -5.00202     0.10309    -1.69673
O     -4.01555    -0.73549     0.32833
O     -2.77429    -0.66339    -1.53844
H     -2.11501    -1.07072    -0.94112
H     -4.87479     1.18389    -1.73658
H     -4.95217    -0.28622    -2.71070
H     -5.96498    -0.12063    -1.24832
