 64
-1834.0575251212697
C      0.41887     0.56037    -2.17330
C      1.88945     0.29886    -2.12191
O     -0.06838     1.65351    -1.94328
O     -0.30842    -0.49496    -2.48463
H     -1.25844    -0.25034    -2.49762
H      2.09984    -0.73198    -2.37467
H      2.40908     0.97326    -2.79660
H      2.24829     0.52152    -1.12011
C      4.28921     2.24266     1.21747
C      4.32211     3.64744     1.71301
O      3.61070     1.36166     1.74949
O      5.03608     2.00861     0.17236
H      5.01494     1.04444    -0.06946
H      5.10620     4.20082     1.20955
H      3.35105     4.09616     1.51078
H      4.47130     3.64616     2.78998
C      0.75409    -3.08024    -0.01942
C     -0.65620    -3.51986    -0.26423
O      1.64914    -3.16163    -0.82628
O      0.93639    -2.57194     1.21205
H      1.85110    -2.25662     1.27984
H     -0.65331    -4.56509    -0.57113
H     -1.25530    -3.38247     0.62795
H     -1.06505    -2.93608    -1.08460
C      4.45227    -1.45524     0.19332
C      4.71498    -2.89395    -0.07586
O      4.97244    -0.54905    -0.43028
O      3.57416    -1.22417     1.16992
H      3.56305    -0.26073     1.39961
H      4.79690    -3.43996     0.85981
H      3.86206    -3.29502    -0.62335
H      5.61518    -2.99556    -0.67220
C     -3.30639     1.52664    -2.31469
C     -4.76352     1.82326    -2.45606
O     -2.84849     0.39578    -2.45325
O     -2.57110     2.56715    -2.01209
H     -1.61972     2.31444    -1.89821
H     -4.93345     2.89311    -2.40583
H     -5.12173     1.42066    -3.39975
H     -5.29033     1.31590    -1.65022
C     -2.35949    -0.67894     2.27725
C     -1.22140    -0.32242     3.18613
O     -2.84102    -1.78520     2.20677
O     -2.77103     0.35268     1.52398
H     -3.55017     0.07468     0.99954
H     -1.21897    -0.99432     4.03900
H     -0.28974    -0.43382     2.64051
H     -1.29491     0.71075     3.51231
C      0.44851     2.70904     1.04097
C     -1.02094     2.85969     0.80132
O      1.27999     3.55997     0.84995
O      0.76247     1.49112     1.51952
H      1.72275     1.46192     1.65618
H     -1.53254     2.98051     1.75498
H     -1.20273     3.72546     0.17489
H     -1.42212     1.97126     0.33484
C     -4.62636    -1.76708    -0.30811
C     -5.21341    -2.96238     0.36455
O     -4.81918    -0.61724     0.04557
O     -3.83727    -2.06891    -1.33266
H     -3.48945    -1.24581    -1.71392
H     -4.62829    -3.15380     1.26307
H     -6.23436    -2.74414     0.66557
H     -5.17185    -3.82437    -0.29182
