 40
-1146.2765673882307
C      1.16385    -2.95032    -1.32015
C     -0.07407    -3.78886    -1.34625
O      1.36437    -2.05456    -2.12885
O      2.00294    -3.24722    -0.35134
H      2.82596    -2.69879    -0.41740
H     -0.17178    -4.23265    -2.33366
H     -0.02511    -4.55477    -0.58109
H     -0.94120    -3.15170    -1.19094
C      4.33804    -0.79658    -1.27061
C      5.56761     0.06122    -1.25254
O      4.16349    -1.71718    -0.48830
O      3.47414    -0.45443    -2.20086
H      2.69136    -1.06963    -2.20216
H      6.09585    -0.04407    -2.19780
H      5.28302     1.10590    -1.15173
H      6.20970    -0.23651    -0.43266
C      0.63436     1.27947     1.26239
C      1.71920     0.44419     0.65283
O     -0.27271     0.78711     1.91844
O      0.74108     2.56479     1.02114
H     -0.02609     3.06398     1.41099
H      1.42362     0.15460    -0.35086
H      2.64558     1.00250     0.59031
H      1.84654    -0.45291     1.24584
C     -3.73729    -0.99377    -1.15505
C     -3.06028     0.09247    -0.37350
O     -3.45206    -2.16278    -1.13688
O     -4.74686    -0.51089    -1.91616
H     -5.12530    -1.26886    -2.37871
H     -2.68912     0.87101    -1.03682
H     -3.76780     0.55362     0.31296
H     -2.23810    -0.32784     0.19359
C     -2.34718     3.33624     2.48871
C     -3.55669     4.12997     2.89187
O     -1.34603     3.86736     2.03367
O     -2.47238     2.03862     2.66749
H     -1.62946     1.57012     2.42897
H     -3.28493     4.77993     3.71980
H     -3.85605     4.76508     2.06263
H     -4.36457     3.46919     3.18309
