 48
-1375.551109444661
C     -1.07004    -2.76975     2.51011
C     -1.77859    -2.76317     3.82549
O     -1.39836    -3.44882     1.55438
O     -0.04268    -1.92801     2.46161
H      0.34788    -1.96326     1.57266
H     -2.63395    -2.09536     3.73689
H     -2.14379    -3.76175     4.04730
H     -1.11979    -2.40419     4.60869
C      1.05920    -2.05247    -1.29240
C      0.14199    -3.14362    -1.72799
O      1.16622    -1.70658    -0.11750
O      1.72487    -1.47278    -2.25577
H      2.25991    -0.71367    -1.90651
H     -0.80495    -2.68945    -2.01384
H      0.55261    -3.67104    -2.58357
H     -0.03824    -3.81119    -0.89462
C     -0.45788     2.03944     1.02931
C     -0.73007     1.61909     2.43488
O     -0.87778     1.42979     0.05831
O      0.29017     3.11775     0.92759
H      0.48303     3.29797    -0.02714
H     -1.60759     0.98171     2.44820
H      0.12951     1.04843     2.78493
H     -0.85628     2.49008     3.07476
C      0.77133     2.60285    -2.51236
C      1.44108     2.72349    -3.84496
O      0.93768     3.41996    -1.61909
O      0.01498     1.53785    -2.38736
H     -0.35257     1.47951    -1.46840
H      2.26365     2.01160    -3.87908
H      0.74305     2.47381    -4.63875
H      1.82769     3.72865    -3.97061
C      3.02993     1.07095    -0.20726
C      3.79206     2.28484     0.21298
O      3.05459     0.62966    -1.34461
O      2.32319     0.52594     0.76144
H      1.87579    -0.29683     0.44917
H      3.09131     3.11418     0.28834
H      4.24258     2.12805     1.18887
H      4.54696     2.51671    -0.52958
C     -3.50164    -1.03644     0.49324
C     -4.23001    -0.06771    -0.39325
O     -3.42629    -0.92441     1.69442
O     -2.91866    -2.01787    -0.20570
H     -2.44103    -2.61062     0.40833
H     -4.56466    -0.55758    -1.30282
H     -5.06750     0.35848     0.15136
H     -3.54199     0.73494    -0.65664
