 56
-1604.8008577038634
C     -0.71359     1.92490    -3.09564
C     -1.57360     1.51201    -4.25068
O      0.45196     1.63409    -2.96668
O     -1.38780     2.64002    -2.18343
H     -0.78905     2.83237    -1.44118
H     -0.96154     1.41570    -5.14263
H     -2.00290     0.53671    -4.02092
H     -2.37857     2.22534    -4.40253
C      2.06058    -0.82787    -0.32250
C      1.96135    -0.89656    -1.81724
O      2.92262    -1.35713     0.33452
O      1.07741    -0.08347     0.23006
H      1.14289    -0.17225     1.20582
H      2.36437     0.01613    -2.25275
H      2.53786    -1.74609    -2.17178
H      0.92441    -0.96923    -2.12928
C      1.25300     3.18612     0.21684
C      1.92303     3.64688    -1.03562
O      0.04685     2.96408     0.28243
O      2.05088     3.04274     1.24989
H     -0.48586     0.22545     4.74828
H      2.92128     4.01688    -0.82566
H      1.96494     2.81173    -1.73211
H      1.31173     4.41432    -1.50154
C     -2.35907    -4.52388    -2.96740
C     -2.40295    -5.75280    -3.82870
O     -2.86452    -4.49814    -1.85519
O     -1.73852    -3.50358    -3.51689
H     -1.74500    -2.71288    -2.91291
H     -1.93858    -6.57587    -3.29126
H     -3.44169    -6.02261    -4.00311
H     -1.89349    -5.57543    -4.76852
C     -2.24489    -1.38286    -0.77797
C     -2.17298    -0.14926     0.05734
O     -1.81127    -1.41532    -1.92300
O     -2.81233    -2.41111    -0.19559
H     -2.83162    -3.19542    -0.80569
H     -2.61080    -0.31051     1.03569
H     -1.13632     0.15224     0.16105
H     -2.69375     0.65177    -0.45813
C     -0.39775     1.88740     3.47646
C     -0.98947     1.18608     4.65436
O      0.73331     2.36739     3.49447
O     -1.17541     1.91944     2.42650
H     -0.72888     2.33539     1.64886
H      1.54327     2.82259     2.06593
H     -0.80051     1.76234     5.55528
H     -2.05214     1.02937     4.50688
C      2.58508    -0.44747     3.37052
C      3.54600    -1.58378     3.47039
O      1.47567    -0.52030     2.87153
O      3.05195     0.68140     3.89482
H      2.38427     1.37738     3.78046
H      3.05646    -2.41906     3.96774
H      3.80411    -1.90524     2.46419
H      4.43088    -1.27622     4.01456
