 56
-1604.802285267171
C     -1.09473     0.33385    -2.67876
C     -2.30043    -0.24857    -1.99773
O     -1.01817     0.57402    -3.85592
O     -0.08044     0.54122    -1.81271
H      0.65414     0.95463    -2.29332
H     -2.08543    -1.26704    -1.68220
H     -2.55149     0.32142    -1.10735
H     -3.14147    -0.25773    -2.68149
C     -4.17167    -3.50839    -1.39415
C     -4.56450    -4.42251    -2.51787
O     -3.13731    -3.66984    -0.76142
O     -5.01418    -2.52641    -1.16826
H     -4.74153    -2.00419    -0.36551
H     -4.63769    -5.43803    -2.13660
H     -5.50619    -4.10784    -2.95203
H     -3.77681    -4.41342    -3.26748
C      0.97050     0.07861     1.74507
C      1.20730    -1.13486     0.90979
O     -0.13761     0.57317     1.87634
O      2.04823     0.57287     2.31801
H      0.81167     4.59695     5.34497
H      2.26176    -1.39023     0.89469
H      0.60704    -1.95146     1.30566
H      0.84960    -0.91681    -0.09080
C     -3.24970    -1.32597     1.61067
C     -2.92531    -0.50703     2.81835
O     -4.27209    -1.16236     0.96402
O     -2.32908    -2.21732     1.30048
H     -2.62431    -2.78053     0.53617
H     -3.80421    -0.44638     3.45380
H     -2.08361    -0.93632     3.34704
H     -2.65889     0.49914     2.50144
C      2.88854     0.08401    -3.37851
C      2.42461    -0.34496    -4.73189
O      2.49499     1.12387    -2.85269
O      3.73930    -0.72027    -2.80006
H      3.99623    -0.38078    -1.89668
H      2.90202    -1.27408    -5.02238
H      1.34298    -0.45332    -4.71117
H      2.65766     0.44271    -5.44466
C      0.21313     3.14087     3.91347
C     -0.07740     4.32486     4.78961
O      1.31812     2.62496     3.83815
O     -0.83611     2.71737     3.24094
H     -0.58943     1.93440     2.68601
H      1.80376     1.34612     2.89314
H     -0.40266     5.15835     4.17131
H     -0.88936     4.08117     5.47043
C      4.30181     1.32746    -0.02639
C      5.03487     1.87195     1.15774
O      4.41886     0.17502    -0.41637
O      3.50522     2.20038    -0.60895
H      3.10556     1.81247    -1.42530
H      4.32318     1.99050     1.97243
H      5.81879     1.18503     1.45507
H      5.44488     2.85019     0.92403
