 64
-1834.0601856235926
C      0.41658    -2.31632    -0.01121
C      1.63147    -3.03623     0.47843
O     -0.36291    -2.77784    -0.82421
O      0.27616    -1.11818     0.51905
H     -0.52491    -0.65912     0.20560
H      1.51326    -4.10726     0.33432
H      2.48947    -2.69419    -0.09869
H      1.79858    -2.79525     1.52342
C      2.15961     2.35352    -0.49805
C      1.33516     3.01319    -1.54573
O      2.71820     1.27214    -0.66264
O      2.25149     3.00812     0.63847
H      2.74427     2.46969     1.30313
H      1.78970     2.85825    -2.51790
H      0.36488     2.52020    -1.56221
H      1.21520     4.06846    -1.32642
C     -3.38986    -1.84154    -0.26753
C     -4.87036    -1.86398    -0.06781
O     -2.65179    -1.03763     0.28581
O     -2.95385    -2.74141    -1.11416
H     -1.96533    -2.75768    -1.11166
H     -5.12408    -1.48519     0.91692
H     -5.31806    -1.21419    -0.81742
H     -5.24989    -2.87057    -0.20726
C      3.96436     0.33274     2.24749
C      4.71619    -0.39491     3.31030
O      3.42057     1.42076     2.43748
O      3.89740    -0.28088     1.09200
H      3.44126     0.28228     0.41580
H      5.42745    -1.08145     2.86483
H      5.20653     0.31637     3.96734
H      3.98661    -0.95722     3.89196
C     -3.46698     0.36836    -3.13898
C     -2.46572     1.38020    -2.67379
O     -4.65979     0.41535    -2.96424
O     -2.88750    -0.67008    -3.78395
H     -3.59556    -1.29345    -3.98133
H     -1.68004     1.51282    -3.40803
H     -2.96956     2.31782    -2.46801
H     -1.99649     1.03233    -1.75500
C     -1.45538     1.90846     1.15322
C     -1.13075     3.20279     1.83589
O     -0.86550     1.48632     0.18151
O     -2.46212     1.25997     1.73386
H     -2.62444     0.42514     1.25388
H     -0.94701     3.96990     1.08922
H     -1.93424     3.50338     2.50246
H     -0.21069     3.06753     2.40102
C      0.66264    -0.23964     3.76744
C     -0.74121    -0.62868     4.12825
O      1.61874    -0.97135     3.84652
O      0.74234     1.03103     3.33566
H      1.65727     1.22716     3.06894
H     -0.73016    -1.55088     4.70019
H     -1.22056     0.16605     4.69423
H     -1.31594    -0.77525     3.21556
C      1.05122    -0.58396    -3.28902
C      0.62526    -1.71822    -4.17187
O      0.54457     0.51070    -3.27193
O      2.07072    -0.92293    -2.48303
H      2.27497    -0.15032    -1.93336
H      1.49202    -2.14071    -4.67771
H      0.17001    -2.49476    -3.56206
H     -0.09625    -1.35598    -4.89504
