 72
-2063.325469796367
C      3.78643     1.66257    -2.03609
C      4.90816     0.68565    -2.13904
O      3.91307     2.73853    -1.47051
O      2.66571     1.26657    -2.60165
H      1.96283     1.95498    -2.50464
H      5.75372     1.16549    -2.62791
H      5.21664     0.41726    -1.13041
H      4.58575    -0.19517    -2.67814
C      0.81210     2.63998     2.08063
C      2.25919     3.00091     1.97298
O      0.43859     1.54172     2.48646
O     -0.01222     3.57416     1.68978
H     -0.97055     3.27286     1.74661
H      2.38928     4.07738     1.97908
H      2.81228     2.53272     2.78014
H      2.63002     2.60988     1.02670
C     -2.91808     1.71813     2.18573
C     -4.37276     1.39908     2.27855
O     -2.48304     2.78944     1.79094
O     -2.13331     0.73567     2.57859
H     -1.19075     1.00370     2.50639
H     -4.96074     2.25917     1.97881
H     -4.59278     0.55297     1.63092
H     -4.61719     1.11039     3.29831
C     -2.02795    -0.33249    -1.58082
C     -1.02925     0.64499    -2.10541
O     -2.16631    -1.45762    -2.03715
O     -2.75574     0.11635    -0.57485
H     -3.37139    -0.60478    -0.27519
H     -0.04164     0.37610    -1.73792
H     -1.00634     0.58885    -3.18985
H     -1.25861     1.65277    -1.78689
C      1.90750    -2.51842    -1.87777
C      0.99817    -3.50028    -2.55796
O      3.10835    -2.50645    -1.98094
O      1.22122    -1.64228    -1.11829
H      1.84453    -1.00043    -0.73016
H      0.89912    -4.38164    -1.92618
H      0.01711    -3.06235    -2.70613
H      1.44467    -3.79953    -3.50326
C     -4.32505    -2.99116    -0.08277
C     -5.23704    -4.01009     0.52024
O     -4.33106    -1.81033     0.23907
O     -3.48989    -3.47798    -0.97521
H     -2.95160    -2.75223    -1.38134
H     -4.66414    -4.56598     1.26100
H     -6.07022    -3.51513     1.00619
H     -5.58150    -4.70357    -0.24136
C      3.10777    -0.67709     1.41919
C      4.15007    -1.74576     1.48179
O      2.81421    -0.07367     0.40666
O      2.53195    -0.42774     2.58671
H      1.86966     0.28135     2.47338
H      3.96827    -2.46017     0.68341
H      5.12602    -1.29818     1.30009
H      4.14728    -2.23222     2.45164
C     -1.46272    -3.90982     1.46184
C     -1.06372    -2.47908     1.63184
O     -2.36984    -4.46120     2.03521
O     -0.71319    -4.54917     0.53953
H     -1.08159    -5.43744     0.45238
H     -1.50802    -2.08225     2.53577
H      0.01516    -2.35516     1.65293
H     -1.44122    -1.91468     0.78354
C      0.97807     4.23659    -1.70649
C     -0.11787     5.24772    -1.55947
O      0.82287     3.17168    -2.28411
O      2.10856     4.59408    -1.13542
H      2.81214     3.90394    -1.29338
H     -0.64921     5.03368    -0.63504
H      0.29959     6.24692    -1.50224
H     -0.81227     5.15719    -2.38854
