 48
-1375.545121881212
C     -1.29840    -1.18465     1.85303
C     -2.29948    -0.73689     2.86058
O     -1.56963    -1.67393     0.77178
O     -0.05004    -0.97721     2.24381
H      0.55235    -1.17152     1.50847
H     -1.96446    -0.99664     3.86226
H     -2.37623     0.34796     2.80192
H     -3.26712    -1.17031     2.64107
C      1.83211    -0.83383    -0.85786
C      0.49879    -1.02516    -1.49565
O      2.08116    -1.20100     0.28605
O      2.71111    -0.22342    -1.61297
H      3.58601    -0.12974    -1.14619
H      0.00230    -1.88701    -1.07137
H     -0.10843    -0.15422    -1.25800
H      0.58966    -1.10359    -2.57291
C      1.21636     2.68000    -1.45738
C      2.52703     3.24934    -1.90057
O      0.25019     2.57656    -2.19381
O      1.21076     2.27354    -0.20092
H      0.28883     2.04956     0.08073
H      2.83295     4.05071    -1.23216
H      3.27994     2.46676    -1.84907
H      2.44299     3.61573    -2.91720
C     -2.29504     1.87860    -0.17099
C     -3.66485     1.65476     0.37864
O     -1.28054     1.72843     0.49997
O     -2.27390     2.23347    -1.43426
H     -1.34092     2.37266    -1.74102
H     -3.68771     1.95414     1.42053
H     -4.40004     2.20501    -0.19998
H     -3.90752     0.59234     0.33837
C      5.40058    -0.65118     0.56638
C      6.81513    -0.64961     1.06091
O      5.05678    -0.03835    -0.43494
O      4.57483    -1.36404     1.30046
H      3.65825    -1.31036     0.94099
H      7.11320     0.37451     1.27117
H      6.90640    -1.26166     1.95047
H      7.46472    -1.02225     0.27286
C     -4.96704    -2.16580     0.08400
C     -6.20977    -2.79940    -0.48129
O     -4.98360    -1.25761     0.88264
O     -3.85077    -2.71752    -0.39352
H     -3.06950    -2.29762     0.01849
H     -6.74670    -3.29198     0.32731
H     -6.85760    -2.01964    -0.87481
H     -5.95748    -3.51603    -1.25480
