 72
-2063.3274326499786
C      2.98216    -3.90533     1.66237
C      4.35828    -3.85979     1.08933
O      1.96912    -3.82671     0.96508
O      2.93074    -4.02660     2.96264
H      1.98932    -4.06125     3.28784
H      4.53529    -2.84284     0.74211
H      5.08718    -4.13186     1.84430
H      4.41608    -4.52284     0.22971
C     -0.66937     1.55619    -3.66387
C     -2.15346     1.73580    -3.66331
O      0.12196     2.47168    -3.45176
O     -0.28553     0.33174    -3.92700
H      0.70411     0.25970    -3.93596
H     -2.60421     0.99333    -3.01163
H     -2.39636     2.73089    -3.31307
H     -2.52887     1.58181    -4.67383
C     -2.73684    -0.35589     0.13004
C     -1.83437    -1.53511     0.02874
O     -3.54238    -0.04746    -0.72528
O     -2.59404     0.32211     1.26492
H     -3.16323     1.13600     1.25451
H     -1.78027    -1.88196    -0.99674
H     -0.84438    -1.27265     0.37622
H     -2.20945    -2.33057     0.66706
C     -0.56505    -3.99217     3.08934
C     -1.93909    -3.92332     3.67602
O      0.43904    -4.06223     3.78131
O     -0.53064    -3.95646     1.77366
H      0.40637    -3.94170     1.45551
H     -2.05014    -4.69699     4.43150
H     -2.05045    -2.95875     4.16720
H     -2.69079    -4.02869     2.90198
C     -4.66307     2.91984     0.14755
C     -5.33992     4.25929     0.16069
O     -4.16619     2.44146     1.15664
O     -4.65997     2.32570    -1.02498
H     -4.23680     1.43466    -0.95059
H     -6.19128     4.21710     0.83636
H     -4.64834     5.00143     0.55218
H     -5.66386     4.53206    -0.83697
C      2.38920    -0.53364    -0.12469
C      2.17033     0.83274    -0.67168
O      3.36318    -0.88717     0.49335
O      1.35885    -1.35760    -0.37664
H      1.57142    -2.22165     0.01280
H      1.47621     0.79678    -1.50098
H      1.74783     1.44894     0.11498
H      3.12036     1.25493    -0.98287
C      3.13656     1.15158    -3.91999
C      4.61818     0.97872    -4.07090
O      2.35227     0.21599    -3.89096
O      2.76652     2.41160    -3.81596
H      1.78803     2.47444    -3.70728
H      4.96376     1.52989    -4.94298
H      5.11850     1.39837    -3.20057
H      4.86442    -0.07225    -4.16764
C     -0.56684     3.20314    -0.21510
C     -0.62988     3.64644     1.20984
O     -1.27722     2.35909    -0.70653
O      0.38630     3.84143    -0.90719
H      0.36185     3.51179    -1.81922
H     -0.02782     2.96749     1.81175
H     -0.23501     4.65459     1.30666
H     -1.65783     3.59078     1.55498
C      0.59848    -0.04803     2.89400
C      1.63131    -0.61989     3.81943
O      0.76994     0.92338     2.19809
O     -0.55287    -0.73710     2.90663
H     -1.19718    -0.28724     2.32529
H      1.23585    -1.48205     4.34453
H      2.50380    -0.89968     3.23343
H      1.93825     0.14427     4.53158
