 48
-1375.5472076612323
C      0.98634     0.70405     2.89011
C      1.81592     0.68965     4.14810
O      0.15761    -0.13339     2.61566
O      1.29123     1.73382     2.10575
H      0.68994     1.74966     1.33225
H      1.55154    -0.17007     4.75500
H      2.87147     0.64608     3.88318
H      1.65177     1.60576     4.71393
C      1.46904    -1.66043     0.12299
C      0.04484    -2.08801     0.15303
O      1.83998    -0.60502    -0.39281
O      2.30305    -2.48185     0.70541
H      3.23650    -2.13355     0.70460
H     -0.03013    -3.16927     0.19997
H     -0.41095    -1.64902     1.04034
H     -0.48584    -1.69537    -0.70584
C     -0.54766     1.85613    -1.13650
C     -1.27765     2.85746    -1.97305
O     -0.46489     1.91559     0.07412
O     -0.01927     0.87433    -1.84397
H      0.53736     0.31449    -1.26240
H     -1.80598     3.55334    -1.33149
H     -0.57097     3.39813    -2.60165
H     -1.98013     2.33955    -2.61968
C     -3.15998     0.28273     0.58105
C     -2.87917     0.52791     2.02404
O     -2.76277    -0.70436    -0.02319
O     -3.85703     1.23986     0.00452
H     -4.01347     1.01066    -0.94478
H     -3.72987     1.00776     2.49730
H     -2.62474    -0.40226     2.51765
H     -2.01435     1.18350     2.08895
C      5.17918    -0.48888     0.44411
C      6.59086    -0.00172     0.58303
O      4.81761    -1.60299     0.78428
O      4.36807     0.41077    -0.08277
H      3.45568     0.05671    -0.16235
H      6.97297     0.28362    -0.39445
H      6.60807     0.88346     1.21495
H      7.20590    -0.78232     1.01406
C     -4.19088    -0.57276    -2.96492
C     -4.77738    -0.93759    -4.29858
O     -4.15747     0.58273    -2.56243
O     -3.71100    -1.59031    -2.28618
H     -3.33653    -1.27329    -1.41966
H     -4.22092    -0.42341    -5.07877
H     -4.73551    -2.00970    -4.44964
H     -5.80487    -0.58489    -4.34377
