 48
-1375.5451372791688
C      1.01666    -2.48751     2.43116
C      0.01570    -2.39745     3.53882
O      0.72564    -2.77334     1.27966
O      2.25961    -2.23780     2.80696
H      2.84132    -2.29272     2.01911
H      0.49830    -2.09514     4.46205
H     -0.76175    -1.69253     3.25488
H     -0.45643    -3.37104     3.65761
C      1.39134    -0.92769    -1.52177
C      0.63151    -0.53232    -2.74527
O      1.86146    -0.11636    -0.73870
O      1.51098    -2.22745    -1.36232
H      1.80321    -2.41835    -0.45132
H     -0.27492    -1.12652    -2.80719
H      0.39472     0.52460    -2.70466
H      1.24185    -0.74524    -3.62318
C     -0.99716     2.50111     0.31872
C      0.13100     2.13136     1.22282
O     -1.01319     2.22423    -0.87446
O     -1.98049     3.13139     0.92054
H     -2.69349     3.37117     0.27067
H     -0.25355     1.45917     1.98597
H      0.91293     1.64443     0.65376
H      0.50625     3.02868     1.71317
C     -3.92851     3.29751    -1.99417
C     -5.09857     3.57727    -2.89262
O     -3.87595     3.72750    -0.85168
O     -2.99106     2.55609    -2.54385
H     -2.22691     2.42844    -1.91595
H     -6.00820     3.24409    -2.39950
H     -5.18093     4.65210    -3.03388
H     -4.97454     3.07788    -3.84644
C      4.59297    -1.23671     0.56313
C      6.01003    -1.41138     1.01999
O      3.76283    -2.13386     0.65286
O      4.32501    -0.05587     0.06396
H      3.37349    -0.01056    -0.22029
H      6.02060    -1.59037     2.09268
H      6.43096    -2.29162     0.54022
H      6.59304    -0.53058     0.78133
C     -2.18873    -1.14929     0.37973
C     -3.38560    -0.60550    -0.34322
O     -1.85060    -0.79778     1.48491
O     -1.52393    -2.04859    -0.35327
H     -0.73226    -2.34171     0.13641
H     -3.22718     0.45562    -0.51164
H     -3.54306    -1.10886    -1.29117
H     -4.26323    -0.70367     0.28973
