 80
-2292.5830139785726
C     -1.59092    -1.25836    -3.05381
C     -3.01731    -1.50255    -3.43699
O     -0.82916    -2.14641    -2.70766
O     -1.24621     0.01324    -3.10665
H     -0.30838     0.13308    -2.82687
H     -3.32538    -0.79402    -4.19712
H     -3.14865    -2.52482    -3.77294
H     -3.63873    -1.34424    -2.55826
C     -6.61243    -0.88279    -1.58897
C     -7.80028    -1.78288    -1.76404
O     -5.76059    -1.09543    -0.73613
O     -6.56504     0.12770    -2.42374
H     -5.75431     0.68026    -2.25631
H     -7.45084    -2.78399    -2.00481
H     -8.33994    -1.84517    -0.82253
H     -8.44516    -1.40751    -2.54987
C      0.11013    -2.63631     1.42243
C     -1.24863    -2.08715     1.14580
O      0.43219    -3.78204     1.15443
O      0.94149    -1.78025     1.99237
H      1.83669    -2.18234     2.07084
H     -1.57218    -2.41526     0.16392
H     -1.93923    -2.48288     1.88834
H     -1.25021    -1.00842     1.21902
C      5.50321    -0.13415     1.56262
C      6.02369     1.27231     1.63404
O      5.77773    -0.93490     0.70242
O      4.66290    -0.40142     2.57818
H      4.33969    -1.31321     2.48153
H      6.41602     1.47196     2.62893
H      6.79704     1.41303     0.88582
H      5.20402     1.96569     1.45117
C      3.70781    -3.85834     1.35406
C      5.14303    -4.22686     1.16547
O      3.35859    -2.87625     2.01027
O      2.85598    -4.66301     0.78293
H      1.91448    -4.36340     0.94283
H      5.49022    -4.72673     2.06912
H      5.24687    -4.89947     0.32087
H      5.73026    -3.32543     1.02744
C     -3.59202     1.36156    -1.04952
C     -2.49133     2.32971    -0.79293
O     -4.38968     1.50420    -1.96090
O     -3.62515     0.33987    -0.21846
H     -4.43936    -0.21299    -0.35812
H     -1.72713     1.89114    -0.16158
H     -2.06832     2.64032    -1.74135
H     -2.90804     3.19767    -0.28446
C      1.49978     2.33594     1.70804
C      1.36423     1.41095     2.87315
O      0.59135     3.01826     1.26696
O      2.71588     2.33533     1.17656
H      2.70646     2.78949     0.30033
H      0.75975     1.88462     3.64231
H      0.83888     0.51594     2.55414
H      2.34395     1.15150     3.25691
C      1.58384     3.82509    -1.70070
C      1.12696     5.23989    -1.54600
O      2.62089     3.38933    -1.23287
O      0.74115     3.06369    -2.37848
H      1.07561     2.15217    -2.39272
H      1.97948     5.91148    -1.58941
H      0.39866     5.48678    -2.31065
H      0.66344     5.33861    -0.56550
C      1.91635    -0.61925    -1.64395
C      3.27894    -0.37818    -1.09590
O      1.26201     0.24198    -2.22741
O      1.46484    -1.83026    -1.43540
H      0.60118    -1.97484    -1.90706
H      4.02149    -0.89459    -1.69997
H      3.48279     0.68435    -1.09376
H      3.34609    -0.79322    -0.09953
C     -2.36552     1.73358     2.69553
C     -3.81078     1.67585     3.09287
O     -1.65299     0.76142     2.62348
O     -1.94921     2.97587     2.42401
H     -1.00239     2.95713     2.17298
H     -4.35053     1.12177     2.32878
H     -3.90231     1.12707     4.02726
H     -4.22468     2.67378     3.19586
