 72
-2063.318396144106
C      1.00524    -2.07858     2.83453
C      1.65260    -1.83821     4.15312
O     -0.04909    -1.56358     2.47805
O      1.65771    -2.92964     2.06798
H      1.31700    -2.88518     1.15546
H      0.95656    -1.35734     4.82763
H      2.01737    -2.78187     4.55180
H      2.50755    -1.17845     4.00780
C     -0.34215     3.23443     0.42053
C     -1.83737     3.25936     0.49833
O      0.38775     3.84513     1.16362
O      0.11240     2.45559    -0.56938
H      1.08238     2.47624    -0.55627
H     -2.17440     4.28358     0.34147
H     -2.27834     2.60894    -0.24851
H     -2.14765     2.94853     1.49191
C      2.79675     1.66510     1.19263
C      3.12634     2.63119     2.28023
O      2.82834     1.93120     0.00118
O      2.45470     0.46122     1.62825
H      2.26153    -0.13922     0.87653
H      4.06907     3.12136     2.04849
H      2.34838     3.39273     2.30017
H      3.17886     2.12466     3.23593
C     -1.27149    -3.84293     0.19588
C     -2.22358    -4.78491    -0.46832
O     -0.11049    -3.68670    -0.15059
O     -1.82258    -3.17275     1.18850
H     -1.16624    -2.58127     1.62378
H     -2.88723    -4.19871    -1.10255
H     -1.67669    -5.49809    -1.07541
H     -2.82551    -5.29095     0.28044
C     -2.86778    -0.44177    -1.51028
C     -1.52833    -0.30943    -0.87165
O     -3.27963    -1.49826    -1.96744
O     -3.56618     0.67295    -1.53575
H     -4.44142     0.53681    -1.98793
H     -1.14278     0.68671    -1.03252
H     -1.63461    -0.48128     0.19597
H     -0.85430    -1.05759    -1.27022
C     -0.39241     1.66242     4.00067
C     -1.01959     2.96925     4.37733
O      0.42088     1.07443     4.66875
O     -0.81783     1.20963     2.80652
H     -0.39815     0.35007     2.64745
H     -2.10281     2.90419     4.29923
H     -0.73522     3.22404     5.39305
H     -0.67586     3.74133     3.69182
C      4.93741     2.66665    -2.87503
C      5.93827     3.39201    -3.73438
O      4.36301     1.65330    -3.18403
O      4.75876     3.28895    -1.69924
H      4.09617     2.79845    -1.18734
H      6.04714     2.87378    -4.68021
H      5.60485     4.41388    -3.90401
H      6.89728     3.43788    -3.22159
C     -6.28454    -0.76860    -3.23394
C     -7.60953    -0.89274    -3.92857
O     -5.90349     0.28796    -2.75223
O     -5.58913    -1.88403    -3.19638
H     -4.71963    -1.74501    -2.73676
H     -8.39639    -0.58191    -3.24597
H     -7.62666    -0.21201    -4.77631
H     -7.77033    -1.91248    -4.25815
C      2.40021    -1.80136    -1.34708
C      3.57627    -1.20972    -2.04259
O      1.94398    -1.38755    -0.29150
O      1.87620    -2.84165    -1.97813
H      1.13866    -3.20107    -1.45342
H      3.40344    -0.16169    -2.27331
H      4.43182    -1.24447    -1.37203
H      3.78521    -1.75931    -2.95271
