 64
-1834.0570838356753
C     -6.95712    -1.18621     0.06817
C     -8.43435    -1.29596     0.31141
O     -6.41930    -1.70775    -0.89657
O     -6.31298    -0.48517     0.97677
H     -5.34342    -0.43788     0.76993
H     -8.71003    -2.34703     0.33948
H     -8.70520    -0.80474     1.23875
H     -8.96170    -0.84393    -0.52521
C      2.20907     4.01979     0.70566
C      1.50868     5.24194     1.19188
O      1.69757     3.21920    -0.07882
O      3.41059     3.85616     1.19497
H      3.85968     3.06854     0.78916
H      0.78161     4.92762     1.94043
H      2.21881     5.93099     1.63608
H      0.96803     5.70418     0.37115
C      1.42182    -1.61070    -3.01706
C      0.39558    -2.50667    -3.62957
O      2.58072    -1.93052    -2.82557
O      0.94913    -0.42629    -2.66871
H      1.63911     0.07117    -2.20033
H      0.82133    -3.02716    -4.48382
H      0.11680    -3.25029    -2.88363
H     -0.48156    -1.94143    -3.92089
C      4.11839     1.03735    -0.79187
C      4.89617    -0.07644    -1.40009
O      4.55536     1.76286     0.07937
O      2.88362     1.17480    -1.27307
H      2.43261     1.93451    -0.82572
H      4.57441    -0.24864    -2.42061
H      5.95735     0.14875    -1.34867
H      4.71044    -0.98847    -0.83126
C     -3.15774    -0.92671    -0.48658
C     -1.68151    -0.85190    -0.70069
O     -3.72674    -0.35218     0.43382
O     -3.78908    -1.65668    -1.37711
H     -4.76741    -1.67548    -1.19799
H     -1.24402    -0.21299     0.05024
H     -1.25038    -1.84724    -0.64640
H     -1.46834    -0.45441    -1.68628
C      1.86599    -0.46887     2.00921
C      2.13003     0.81027     2.74642
O      2.36861    -1.52761     2.28776
O      1.01386    -0.29378     0.98198
H      0.87186    -1.14448     0.52081
H      2.35442     0.59324     3.78725
H      2.99224     1.30422     2.30262
H      1.27804     1.47559     2.67431
C     -1.29302     2.61188     1.76451
C     -2.60107     2.04193     2.21185
O     -0.46320     3.10305     2.49339
O     -1.11385     2.50386     0.43883
H     -0.23381     2.85016     0.22686
H     -3.38889     2.29606     1.50840
H     -2.53716     0.95656     2.22741
H     -2.83383     2.40799     3.20679
C      1.90722    -3.54389     0.05749
C      1.96162    -4.52242     1.18524
O      0.94232    -2.84308    -0.19129
O      3.03093    -3.49894    -0.64644
H      2.93560    -2.87728    -1.39524
H      2.20527    -3.96979     2.08987
H      0.98741    -4.98391     1.31778
H      2.72845    -5.26523     0.99730
