 72
-2063.3300356028976
C      7.13837     2.51647    -0.13479
C      8.14140     3.54872     0.28465
O      7.13806     1.37180     0.28919
O      6.25719     2.96969    -1.00464
H      5.62153     2.26632    -1.26708
H      8.68366     3.90199    -0.58928
H      7.62376     4.40109     0.71820
H      8.82792     3.11973     1.00386
C     -0.52970    -1.14055    -1.37328
C     -0.96818    -2.54815    -1.09964
O      0.36544    -0.82711    -2.11904
O     -1.23928    -0.24927    -0.67311
H     -1.02726     0.65356    -0.96903
H     -0.63495    -2.83447    -0.10392
H     -2.05223    -2.62052    -1.12513
H     -0.53042    -3.21516    -1.83718
C      1.36057     1.95105    -3.07292
C      0.20058     2.02548    -4.00639
O      1.31545     2.22215    -1.88618
O      2.46950     1.53657    -3.66325
H      3.15317     1.38911    -2.98243
H     -0.61984     2.55496    -3.53532
H      0.50023     2.51072    -4.93236
H     -0.10747     1.00835    -4.23999
C     -6.46471    -4.08409     0.07367
C     -7.10409    -5.38936    -0.30473
O     -7.11486    -3.06098     0.21087
O     -5.15955    -4.15664     0.24089
H     -4.77952    -3.27272     0.48646
H     -6.35273    -6.16280    -0.41333
H     -7.82377    -5.66305     0.46287
H     -7.65399    -5.25560    -1.23276
C      1.17331     0.33787     1.54272
C      2.27919     1.14703     0.94845
O      1.18278    -0.88388     1.51452
O      0.20587     1.03719     2.08362
H     -0.48592     0.44613     2.47883
H      2.22008     1.05784    -0.13212
H      2.19810     2.19242     1.21833
H      3.22119     0.73061     1.28369
C     -4.74910    -0.70960     0.79524
C     -4.06419     0.60971     0.93051
O     -4.16030    -1.77771     0.89154
O     -6.03849    -0.61587     0.56235
H     -6.44263    -1.51307     0.44336
H     -4.73170     1.32943     1.39321
H     -3.15896     0.47783     1.51078
H     -3.78504     0.97341    -0.05595
C      4.50275    -0.09517    -1.26482
C      3.48720    -1.13165    -1.61022
O      4.53073     1.02192    -1.77878
O      5.35921    -0.47452    -0.35383
H      6.02708     0.23695    -0.14273
H      2.75536    -1.18398    -0.80852
H      2.97154    -0.86564    -2.52242
H      3.95980    -2.10634    -1.69912
C     -1.11979     3.20729     0.04100
C     -1.94622     3.76837     1.16436
O     -1.56464     2.53417    -0.86585
O      0.16255     3.52846     0.15641
H      0.67965     3.05896    -0.53242
H     -1.77680     4.83941     1.25102
H     -2.99397     3.57033     0.97702
H     -1.64762     3.30014     2.09997
C     -1.50966    -1.78575     3.23705
C     -2.52446    -2.60367     3.97457
O     -1.53313    -0.56443     3.21378
O     -0.61515    -2.50428     2.59352
H      0.06187    -1.91560     2.17137
H     -3.24471    -2.97310     3.24910
H     -2.04864    -3.45619     4.45017
H     -3.03548    -1.98311     4.70238
