 80
-2292.594052880304
C      4.28577    -1.04919    -1.35464
C      5.46849    -1.91987    -1.63094
O      3.17033    -1.29611    -1.78001
O      4.55772    -0.00821    -0.60001
H      3.77907     0.61034    -0.56515
H      6.30392    -1.32212    -1.98737
H      5.75687    -2.40148    -0.69917
H      5.19534    -2.67247    -2.36084
C     -3.80819     2.36653     0.04966
C     -4.72325     1.34973    -0.56116
O     -3.52587     2.37003     1.24436
O     -3.33006     3.24517    -0.79399
H     -2.73046     3.89601    -0.33690
H     -5.70302     1.43473    -0.09561
H     -4.80341     1.50065    -1.63141
H     -4.35394     0.34830    -0.36174
C     -4.92191    -4.28576    -3.78049
C     -5.84235    -5.02935    -4.70445
O     -5.26740    -3.25857    -3.21371
O     -3.73590    -4.83374    -3.64594
H     -3.16421    -4.30451    -3.02719
H     -5.35989    -5.92387    -5.08054
H     -6.75336    -5.28225    -4.16801
H     -6.12053    -4.37353    -5.52591
C     -1.44323     5.22758     1.43898
C     -0.76604     6.48451     1.87391
O     -1.66618     4.95552     0.27119
O     -1.78114     4.43171     2.43925
H     -2.04558     3.55947     2.09519
H     -0.72791     7.18818     1.04991
H     -1.29637     6.90993     2.72224
H      0.24557     6.23823     2.19199
C     -2.55139    -2.35242    -1.48068
C     -1.60950    -1.56148    -0.63563
O     -2.24448    -3.41154    -2.00884
O     -3.74219    -1.80660    -1.61043
H     -4.32117    -2.35459    -2.20533
H     -0.74001    -2.15886    -0.40196
H     -1.29509    -0.68074    -1.18458
H     -2.11567    -1.25257     0.26985
C     -0.96619     0.87988     2.56922
C      0.00822     0.00696     3.28889
O     -0.68272     1.93737     2.02594
O     -2.20052     0.39734     2.55223
H     -2.79122     1.05509     2.12843
H      0.95415     0.52481     3.39785
H     -0.40220    -0.27156     4.25701
H      0.17781    -0.90075     2.71782
C      1.92645    -3.92514    -0.59412
C      1.33754    -4.46036    -1.85942
O      1.33061    -3.17932     0.16665
O      3.16623    -4.31673    -0.38872
H      3.54188    -3.82344     0.37885
H      1.68547    -5.47548    -2.03196
H      0.25448    -4.41505    -1.81568
H      1.68750    -3.82792    -2.67511
C      2.39906     3.23886     2.41276
C      3.65754     3.90590     1.94149
O      2.35965     2.22151     3.05947
O      1.30080     3.90158     2.02023
H      0.53227     3.32473     2.19206
H      3.54399     4.98721     1.97636
H      4.48851     3.58081     2.55868
H      3.84680     3.61255     0.90928
C      1.35649     1.33745    -1.03004
C      0.26311     2.35765    -1.04571
O      2.50194     1.60972    -0.70188
O      0.98329     0.11988    -1.37254
H      1.77735    -0.46368    -1.48386
H     -0.51812     2.06872    -1.73880
H     -0.16666     2.44398    -0.05023
H      0.66558     3.32798    -1.31370
C      3.68412    -1.71287     1.95566
C      4.45245    -0.78667     2.84147
O      4.17267    -2.72942     1.49041
O      2.44672    -1.33263     1.70473
H      1.99512    -1.98892     1.11962
H      3.82104     0.03225     3.16493
H      4.84106    -1.34691     3.69052
H      5.30128    -0.40568     2.27535
