 32
-917.0193969831553
C      1.60112    -1.44364    -0.39841
C      2.63007    -2.52231    -0.37108
O      1.84735    -0.25195    -0.41622
O      0.35472    -1.90861    -0.40119
H     -0.26351    -1.15740    -0.39514
H      3.35511    -2.34537    -1.16051
H      3.18317    -2.46012     0.56273
H      2.16011    -3.49346    -0.47697
C     -1.64265     1.34150    -0.31129
C     -0.33223     2.01541    -0.56214
O     -1.76531     0.11941    -0.27245
O     -2.64415     2.16698    -0.14000
H     -3.50183     1.68727     0.02415
H      0.05377     1.68216    -1.52240
H     -0.45964     3.09210    -0.55237
H      0.38956     1.69892     0.18393
C      5.32662     0.28615     0.29535
C      6.58175     1.04496     0.63458
O      5.28859    -0.90875     0.13379
O      4.26168     1.09370     0.20002
H      3.47059     0.56360    -0.01588
H      6.39897     2.11384     0.63255
H      6.92823     0.72533     1.61563
H      7.35482     0.78482    -0.08472
C     -5.16139    -0.24407     0.33580
C     -6.50843    -0.85189     0.57754
O     -4.98017     0.96186     0.29972
O     -4.19884    -1.13110     0.16664
H     -3.33822    -0.68266     0.01251
H     -6.44159    -1.93348     0.58244
H     -6.89309    -0.48786     1.52663
H     -7.18994    -0.51509    -0.19942
