 48
-1375.544730721663
C      3.09643     1.96454    -0.77975
C      4.52115     2.38261    -0.61527
O      2.66760     1.44367    -1.80014
O      2.36181     2.16956     0.28700
H      1.42136     1.93040     0.12188
H      5.00290     2.45308    -1.58427
H      4.57922     3.32807    -0.08407
H      5.01957     1.62439    -0.01340
C      3.28438    -1.67976    -0.99254
C      4.31800    -1.71563    -2.07067
O      2.16971    -2.15600    -1.12220
O      3.68312    -1.06458     0.10368
H      2.95108    -1.08383     0.77080
H      5.27914    -2.02042    -1.66465
H      4.00138    -2.39191    -2.85592
H      4.41822    -0.70878    -2.47332
C     -0.62424     1.04491    -1.23259
C     -2.06522     0.72289    -1.44190
O     -0.21606     1.62153    -0.22344
O      0.18374     0.65431    -2.18106
H      1.11991     0.95004    -2.01997
H     -2.37167    -0.02640    -0.71358
H     -2.66816     1.61136    -1.27733
H     -2.22530     0.33486    -2.44123
C     -2.66234     2.67617     2.21271
C     -3.82284     3.47272     2.74921
O     -2.02503     1.87761     2.85280
O     -2.42149     2.95250     0.92366
H     -1.66978     2.40840     0.62175
H     -4.72294     3.23286     2.18599
H     -3.96667     3.23744     3.79722
H     -3.62958     4.53669     2.62652
C      0.43334    -1.28190     1.52219
C     -0.66398    -0.97390     2.47192
O      1.61180    -1.10252     1.76557
O      0.03128    -1.77348     0.34767
H      0.82258    -1.94709    -0.23062
H     -1.52650    -1.60095     2.28095
H     -0.30523    -1.09774     3.49005
H     -0.96010     0.06934     2.35511
C     -3.42494    -2.76711    -0.23561
C     -4.57097    -3.61472    -0.71917
O     -3.53087    -1.65022     0.20950
O     -2.25090    -3.40014    -0.36371
H     -1.53355    -2.81793    -0.06062
H     -4.54763    -4.58393    -0.22593
H     -5.50721    -3.10876    -0.51491
H     -4.46755    -3.78488    -1.78947
