 64
-1834.0613887956742
C     -6.13775    -2.11437    -1.17603
C     -7.55948    -2.35173    -1.59540
O     -5.21979    -2.81217    -1.58421
O     -5.97876    -1.10907    -0.34619
H     -5.02208    -1.00055    -0.09369
H     -8.21250    -1.60009    -1.16716
H     -7.61589    -2.33566    -2.68087
H     -7.86019    -3.34447    -1.26844
C      2.31377     3.84115    -0.24808
C      1.95040     5.27154    -0.45890
O      1.99160     2.94673    -1.02184
O      3.00500     3.61184     0.84599
H      3.20967     2.65660     0.91610
H      0.87494     5.36422    -0.31659
H      2.48039     5.90299     0.24517
H      2.17594     5.55236    -1.48434
C      1.05226    -2.62214    -2.01256
C      0.06443    -3.45283    -2.76666
O      1.84924    -3.06224    -1.20392
O      0.98155    -1.33204    -2.29601
H      1.66383    -0.84404    -1.80057
H     -0.84737    -3.52315    -2.17773
H     -0.17302    -2.98298    -3.71497
H      0.45495    -4.45569    -2.91303
C      4.00420     0.30803    -0.42116
C      4.69439    -1.00595    -0.58855
O      4.31138     1.15278     0.38412
O      2.97003     0.45830    -1.26330
H      2.61704     1.37645    -1.19521
H      4.00799    -1.78899    -0.27172
H      4.93192    -1.17757    -1.63504
H      5.59310    -1.02948     0.01714
C     -2.54395    -1.60961     0.02555
C     -1.16007    -1.46648     0.56202
O     -3.44536    -0.83449     0.30394
O     -2.70227    -2.63599    -0.78576
H     -3.64581    -2.70305    -1.09623
H     -0.63755    -0.75744    -0.07168
H     -1.19329    -1.06215     1.56616
H     -0.64502    -2.41652     0.53029
C      0.62714     1.45902     2.82761
C      0.37289     2.86051     3.28855
O      0.25772     0.46731     3.40456
O      1.32230     1.41169     1.67066
H      1.55856     0.47838     1.50750
H      0.01673     2.83417     4.31426
H      1.28165     3.45114     3.21852
H     -0.38602     3.31800     2.65626
C     -1.43804     2.99724    -0.41920
C     -2.90395     2.79296    -0.67432
O     -0.95140     3.98768     0.07084
O     -0.70853     1.93721    -0.80244
H      0.23026     2.14154    -0.65887
H     -3.06554     2.65175    -1.74179
H     -3.24928     1.89563    -0.16639
H     -3.45849     3.65951    -0.32914
C      1.91346    -2.26773     1.99221
C      1.84481    -2.30558     3.48274
O      1.96431    -1.24962     1.32908
O      1.92156    -3.47374     1.44037
H      1.95608    -3.38540     0.46254
H      2.76142    -1.87788     3.88690
H      1.03079    -1.67251     3.82631
H      1.72161    -3.32633     3.82730
