 72
-2063.3248659686187
C     -2.13667    -1.36956     4.67142
C     -2.19818    -0.04278     5.35898
O     -3.07599    -2.11772     4.54461
O     -0.91398    -1.64429     4.17623
H     -0.93080    -2.52302     3.76706
H     -1.35682     0.07961     6.03681
H     -2.15005     0.73597     4.60062
H     -3.13541     0.04068     5.89856
C     -1.01612     3.51132    -0.99597
C     -1.60564     4.57181    -1.87443
O     -1.66705     2.75310    -0.30548
O      0.30970     3.47038    -1.06632
H      0.62450     2.71456    -0.54176
H     -1.57005     4.22172    -2.90483
H     -2.63766     4.75233    -1.59182
H     -1.02166     5.48533    -1.80432
C      1.34599     0.78505     1.40634
C      0.21299     0.72127     2.36724
O      1.22432     1.17785     0.25018
O      2.49027     0.35559     1.88614
H      3.20776     0.40440     1.20283
H     -0.22764     1.71182     2.46623
H     -0.56671     0.08414     1.95802
H      0.54604     0.33971     3.32082
C     -2.36162    -4.02278     2.20732
C     -3.57987    -4.73949     2.68155
O     -1.25616    -4.16058     2.72195
O     -2.56530    -3.20172     1.20354
H     -1.71441    -2.79489     0.89724
H     -3.29432    -5.66183     3.17620
H     -4.07782    -4.09451     3.40316
H     -4.25517    -4.92828     1.85368
C     -3.62621     0.28295     1.44656
C     -4.75520    -0.67439     1.69530
O     -2.86241     0.67335     2.29714
O     -3.55146     0.64446     0.15840
H     -2.83767     1.29637     0.02518
H     -4.57881    -1.59013     1.13617
H     -4.80578    -0.89454     2.75550
H     -5.69227    -0.23998     1.34752
C      0.83969    -2.89798     0.50801
C      2.04214    -2.57386    -0.32459
O     -0.23227    -2.32098     0.37802
O      1.04312    -3.84883     1.38918
H      0.22364    -3.99424     1.91756
H      2.74545    -2.00200     0.27500
H      2.53551    -3.48822    -0.64487
H      1.74177    -1.97950    -1.17986
C      2.47101     1.98432    -5.21503
C      3.40075     2.41027    -6.31422
O      1.35685     2.45685    -5.06159
O      2.99007     1.05477    -4.43553
H      2.37876     0.81359    -3.69395
H      3.60952     1.56053    -6.96038
H      2.95196     3.21380    -6.88524
H      4.34240     2.73549    -5.87720
C     -0.03272     0.54999    -2.65088
C     -1.04760    -0.07232    -1.74928
O      1.15334     0.25208    -2.62230
O     -0.52149     1.45277    -3.47197
H      0.19024     1.82255    -4.05425
H     -2.05560     0.16796    -2.06721
H     -0.88762    -1.14356    -1.72220
H     -0.87985     0.30912    -0.74687
C      4.43605     1.07897    -0.97131
C      5.69749     1.37258    -1.71898
O      4.39090     0.40627     0.04432
O      3.37058     1.62644    -1.52929
H      2.55146     1.29560    -1.11199
H      5.53389     1.18746    -2.77647
H      5.94629     2.42423    -1.59141
H      6.50583     0.75866    -1.33761
