 72
-2063.3334930137908
C      4.73711     2.36493     1.44156
C      5.70066     3.50351     1.53882
O      4.53430     1.58697     2.36219
O      4.11989     2.28964     0.28270
H      3.38674     1.64179     0.34018
H      5.12810     4.41392     1.70984
H      6.38194     3.34539     2.36764
H      6.23993     3.61355     0.60263
C      0.18412     4.18641    -0.11780
C     -0.38914     4.45206    -1.46770
O     -0.45997     3.68121     0.79869
O      1.43566     4.53649     0.02194
H      1.74075     4.38669     0.95296
H     -0.35128     5.52004    -1.67756
H      0.21214     3.93856    -2.21329
H     -1.40797     4.08648    -1.50020
C      1.69016     3.42272     3.32659
C      2.26887     3.13195     4.67285
O      2.24663     4.13792     2.50829
O      0.54749     2.81297     3.09120
H      0.15302     3.12521     2.23867
H      2.84841     2.21412     4.59001
H      2.92921     3.94047     4.96636
H      1.48432     2.98318     5.40828
C     -3.96269    -4.29404    -0.23146
C     -5.40457    -3.99568    -0.49807
O     -3.40833    -5.29395    -0.66339
O     -3.35409    -3.38394     0.49574
H     -2.38054    -3.56166     0.53655
H     -5.89466    -3.66718     0.41412
H     -5.45482    -3.18370    -1.22123
H     -5.88986    -4.87441    -0.90484
C     -2.68141     1.07310    -0.45527
C     -3.44064    -0.21245    -0.47601
O     -2.64447     1.86435    -1.37227
O     -1.99281     1.26814     0.68095
H     -1.58165     2.14640     0.64403
H     -4.32011    -0.10048    -1.10019
H     -2.81781    -0.98070    -0.93048
H     -3.71227    -0.53685     0.52248
C     -0.18616    -4.66696    -0.23602
C      1.29826    -4.66272    -0.43093
O     -0.76230    -3.88416     0.50177
O     -0.80983    -5.57867    -0.95142
H     -1.79064    -5.51249    -0.80542
H      1.77121    -4.16304     0.40704
H      1.66773    -5.67776    -0.54141
H      1.51423    -4.11064    -1.34386
C      0.09832     0.54264    -2.09478
C     -0.44246     0.84565    -3.45428
O     -0.08994    -0.50808    -1.51031
O      0.78844     1.53708    -1.55174
H      1.13029     1.26113    -0.67854
H     -0.45411    -0.06404    -4.04703
H     -1.46579     1.19680    -3.32874
H      0.14584     1.61839    -3.94072
C     -1.94859    -3.06468    -3.16217
C     -2.12016    -4.27313    -4.03230
O     -2.86759    -2.42362    -2.71363
O     -0.66119    -2.79019    -2.92387
H     -0.57350    -1.94699    -2.43168
H     -3.09817    -4.23894    -4.50149
H     -1.33512    -4.33219    -4.78154
H     -2.06595    -5.16070    -3.40424
C      1.68620     0.13089     1.75761
C      0.37368    -0.55582     1.88222
O      2.01470     0.77908     0.76642
O      2.47493     0.01282     2.79251
H      3.30776     0.53349     2.63699
H     -0.13579    -0.48564     0.93035
H      0.50635    -1.59767     2.16593
H     -0.21919    -0.05987     2.64885
