 32
-917.0307388828649
C      1.18632    -2.04158     1.81041
C      0.68457    -2.72722     3.04538
O      1.63479    -0.90604     1.82972
O      1.07764    -2.76529     0.71547
H      1.38674    -2.24138    -0.06531
H      0.56240    -3.79039     2.87133
H      1.37125    -2.54252     3.86610
H     -0.27502    -2.28939     3.31190
C     -1.43700     2.76496     0.62613
C     -1.45991     4.11948     1.27349
O     -1.40009     2.63117    -0.58987
O     -1.45132     1.75994     1.46979
H     -1.46411     0.89607     0.98278
H     -2.33008     4.66544     0.91689
H     -1.48503     4.02500     2.35269
H     -0.57733     4.67224     0.96001
C      1.82025    -0.06826    -1.37449
C      2.01711     0.72777    -2.62498
O      1.76830    -1.28873    -1.36945
O      1.67336     0.66635    -0.29615
H      1.64741     0.09316     0.51420
H      2.80820     1.45976    -2.48351
H      2.25051     0.06266    -3.44806
H      1.09638     1.26675    -2.83628
C     -1.43729    -0.68237    -1.01697
C     -1.54464    -2.01263    -1.68644
O     -1.46321    -0.53986     0.19355
O     -1.28794     0.31363    -1.86544
H     -1.30307     1.18905    -1.39223
H     -2.34822    -2.00128    -2.41987
H     -0.60978    -2.21138    -2.20376
H     -1.71950    -2.77492    -0.93725
