 32
-917.0154769720735
C      2.72015    -0.22807    -1.96332
C      2.19843     1.12950    -1.59900
O      3.71854    -0.74932    -1.53870
O      1.92702    -0.84163    -2.87564
H      2.33372    -1.69830    -3.05197
H      2.56922     1.40604    -0.61863
H      2.54906     1.85140    -2.33741
H      1.11292     1.12705    -1.60278
C     -2.47053     1.06548    -1.87501
C     -2.56680     1.61038    -3.26892
O     -3.29342     0.29982    -1.40320
O     -1.40764     1.49331    -1.21549
H     -1.39796     1.12556    -0.29804
H     -3.40429     1.15467    -3.78307
H     -2.69890     2.68959    -3.22644
H     -1.63914     1.41050    -3.80022
C      1.86660    -0.82388     2.10570
C      3.35481    -0.99528     2.12338
O      1.07866    -1.54594     2.66596
O      1.49086     0.24461     1.37991
H      0.52242     0.30008     1.41900
H      3.69554    -1.30663     1.13863
H      3.83662    -0.04921     2.36138
H      3.61525    -1.74804     2.85954
C     -2.17974    -0.35407     1.70465
C     -2.03992    -0.93597     3.06840
O     -1.37854     0.46004     1.24450
O     -3.22095    -0.77028     1.03169
H     -3.24777    -0.36639     0.12151
H     -2.92868    -1.49769     3.33040
H     -1.15749    -1.57370     3.08141
H     -1.85492    -0.13079     3.77383
