 48
-1375.5400609513624
C      0.05433     0.06045     2.49016
C     -1.15106     0.76089     3.03606
O      0.62153    -0.85018     3.04355
O      0.44449     0.53081     1.29006
H      1.23456     0.02816     1.02433
H     -1.98436     0.06249     3.02455
H     -0.95637     1.04331     4.06946
H     -1.39037     1.63327     2.44000
C      1.60754    -1.63920    -2.30475
C      0.76366    -1.55843    -3.53703
O      1.93613    -2.69595    -1.78614
O      1.97265    -0.46812    -1.82174
H      2.41328    -0.59046    -0.94781
H      0.78011    -2.51385    -4.04977
H     -0.25651    -1.32412    -3.23855
H      1.12110    -0.76362    -4.18620
C      0.05073     3.90882    -0.95841
C      0.61712     2.56058    -1.24118
O     -1.01318     4.13351    -0.41501
O      0.84424     4.91741    -1.34908
H      0.39396     5.73792    -1.10952
H      1.16144     2.54387    -2.18085
H      1.30311     2.28578    -0.44418
H     -0.19017     1.83775    -1.25317
C     -3.26623     1.38408    -0.38065
C     -4.53396     0.65617    -0.06552
O     -2.41077     0.97367    -1.14905
O     -3.14407     2.52267     0.27956
H     -2.34056     3.01382    -0.00349
H     -5.21927     1.31021     0.46217
H     -4.97656     0.28627    -0.98672
H     -4.27872    -0.20294     0.55253
C      3.07293    -1.90214     1.21743
C      3.59133    -1.98388     2.61384
O      2.89066    -0.83170     0.63608
O      2.81090    -3.05509     0.65976
H      2.49525    -2.93728    -0.27748
H      3.92433    -2.99194     2.83214
H      4.39266    -1.26258     2.74726
H      2.77628    -1.70949     3.28210
C     -1.58928    -1.95836     0.21856
C     -0.89756    -3.24983     0.53642
O     -2.38092    -1.42490     0.95944
O     -1.21762    -1.44290    -0.95604
H     -1.65766    -0.57343    -1.07505
H     -1.62186    -3.96901     0.91319
H     -0.38682    -3.64439    -0.33526
H     -0.17431    -3.05480     1.32788
