 64
-1834.0691700557072
C     -4.09266    -1.72961    -1.22499
C     -5.05396    -2.40719    -2.14994
O     -4.29758    -0.62289    -0.74649
O     -2.99933    -2.42092    -1.00674
H     -2.44619    -1.97721    -0.31830
H     -5.98920    -1.85943    -2.16978
H     -4.61088    -2.42389    -3.14373
H     -5.21444    -3.43428    -1.83329
C      3.01286     2.37694     2.40098
C      2.63284     3.70183     2.97072
O      2.78623     2.06128     1.23419
O      3.60465     1.56883     3.25015
H      3.83390     0.70117     2.83446
H      1.54920     3.79602     2.93206
H      2.99276     3.79030     3.98921
H      3.04252     4.48789     2.34194
C     -2.92128     0.87887    -3.31222
C     -4.15656     1.66186    -3.62666
O     -2.74130    -0.25738    -3.72256
O     -2.06534     1.51563    -2.54602
H     -1.34864     0.90433    -2.23539
H     -4.62266     1.26751    -4.52310
H     -4.84027     1.55385    -2.78525
H     -3.91726     2.71452    -3.74344
C      4.38706    -0.92842     0.90760
C      5.13352    -2.07150     0.31096
O      4.23610    -0.78671     2.11856
O      3.87021    -0.09305     0.03751
H      3.43405     0.67414     0.48164
H      5.92541    -2.38240     0.98508
H      4.42711    -2.89314     0.20157
H      5.52501    -1.80401    -0.66457
C     -1.67645    -0.06015     1.16241
C     -0.56059     0.60435     1.89320
O     -1.71390    -1.26547     0.95891
O     -2.62120     0.75797     0.75679
H     -3.29025     0.26865     0.21447
H     -0.93412     1.44671     2.46583
H     -0.06285    -0.11987     2.52628
H      0.15065     0.98605     1.16352
C      1.49970    -3.03079     1.94776
C      0.25991    -3.81812     2.23824
O      2.15604    -3.13755     0.93851
O      1.79579    -2.15541     2.92187
H      2.63041    -1.70955     2.70422
H      0.25888    -4.15331     3.27283
H     -0.60812    -3.17880     2.08553
H      0.19783    -4.66134     1.55795
C     -0.37324     3.64591     0.37539
C     -1.61926     3.98352    -0.38095
O     -0.25386     3.71650     1.57634
O      0.61916     3.24493    -0.43364
H      1.39232     3.03536     0.11258
H     -1.75875     5.06443    -0.36001
H     -1.55029     3.63399    -1.40207
H     -2.46696     3.52749     0.12218
C      0.07609    -1.20509    -2.27120
C      1.30263    -1.95077    -1.86670
O     -0.26229    -0.16270    -1.72729
O     -0.61200    -1.75736    -3.24083
H     -1.40183    -1.20274    -3.45759
H      1.63395    -2.60776    -2.66608
H      2.07320    -1.23931    -1.59093
H      1.08219    -2.54556    -0.98198
