 72
-2063.3191664829324
C     -1.49672    -4.71748    -0.24284
C     -1.19544    -5.52886    -1.45987
O     -0.62094    -4.16407     0.42015
O     -2.76838    -4.63503     0.04535
H     -2.92461    -4.10452     0.87294
H     -2.05999    -6.12125    -1.73872
H     -0.93895    -4.84261    -2.26662
H     -0.33081    -6.15745    -1.26760
C      0.66531     1.52278    -4.78028
C     -0.53718     1.33637    -5.64326
O      0.59455     1.94160    -3.62766
O      1.80371     1.20667    -5.34511
H      2.55420     1.36524    -4.71793
H     -0.26126     0.86276    -6.57915
H     -1.27658     0.74643    -5.10751
H     -0.97708     2.31348    -5.83646
C     -2.06700     2.25426     4.79862
C     -2.87452     3.13008     5.71378
O     -2.58790     1.59035     3.91352
O     -0.77328     2.27059     5.03255
H     -0.29904     1.65430     4.40840
H     -2.23595     3.59916     6.45333
H     -3.38107     3.88583     5.11807
H     -3.63906     2.52670     6.19646
C     -2.36591    -2.65564     2.91229
C     -2.70509    -1.94200     4.17913
O     -3.20518    -3.19541     2.21238
O     -1.07692    -2.65235     2.62624
H     -0.90828    -3.17365     1.80969
H     -1.80905    -1.54247     4.63577
H     -3.40299    -1.14080     3.95511
H     -3.20249    -2.63988     4.84925
C     -0.01155     0.37740     2.22378
C      0.87509    -0.14755     1.14758
O      0.39634     0.66970     3.33638
O     -1.27980     0.48481     1.88076
H     -1.80008     0.89833     2.61271
H      0.28877    -0.36400     0.26412
H      1.65432     0.57784     0.93103
H      1.35777    -1.05275     1.50914
C      1.12686    -2.42780    -2.17570
C      2.03927    -1.50654    -2.92215
O      0.03597    -2.77484    -2.56467
O      1.62730    -2.81888    -0.99850
H      0.96631    -3.38687    -0.57089
H      3.08325    -1.69371    -2.69856
H      1.84822    -1.58846    -3.98453
H      1.81576    -0.48341    -2.62531
C      3.68820     2.14213    -2.49276
C      4.86929     2.34586    -1.60804
O      3.73951     1.55353    -3.55686
O      2.55829     2.65490    -2.01633
H      1.80402     2.42447    -2.61772
H      5.75401     1.93027    -2.07674
H      5.00385     3.40870    -1.42190
H      4.68509     1.86974    -0.64838
C     -2.05433    -0.22104    -2.02678
C     -2.38043    -1.27491    -1.01671
O     -2.67119     0.00966    -3.03406
O     -0.92929     0.45662    -1.69545
H     -0.76090     1.11413    -2.38325
H     -3.36219    -1.68730    -1.21670
H     -1.63767    -2.06189    -1.10776
H     -2.32975    -0.87236    -0.00752
C      2.36903     3.48316     1.68712
C      1.82846     4.10334     2.94595
O      3.30840     2.72828     1.64962
O      1.68574     3.85696     0.58887
H      2.08609     3.43870    -0.18938
H      2.63846     4.61823     3.45914
H      1.02271     4.79659     2.72578
H      1.47273     3.31446     3.60410
