 32
-917.0184244129306
C      1.71875    -1.35099    -2.44525
C      2.87146    -2.15653    -2.97994
O      1.79277    -0.20250    -2.08098
O      0.58343    -2.06200    -2.42531
H     -0.12969    -1.50475    -2.05764
H      3.76233    -1.53980    -3.01927
H      3.04681    -3.01956    -2.33973
H      2.63250    -2.53098    -3.97383
C     -1.42314     0.66300    -1.78935
C     -1.12607     0.79491    -3.25018
O     -1.36214    -0.41668    -1.20400
O     -1.73439     1.78339    -1.20049
H     -1.87986     1.66909    -0.21497
H     -1.73270     1.57890    -3.69383
H     -0.07315     1.05347    -3.34797
H     -1.29619    -0.15956    -3.73483
C      1.67058     0.33884     2.42318
C      1.46298     0.57815     0.96169
O      0.84466     0.49722     3.28862
O      2.91370    -0.10053     2.70967
H      2.94094    -0.23046     3.66534
H      2.34214     0.99361     0.48385
H      1.25133    -0.36339     0.46102
H      0.61378     1.23736     0.83731
C     -2.11093     0.48080     2.02208
C     -2.38117     0.42263     3.48489
O     -2.04965     1.51975     1.38260
O     -1.93004    -0.70526     1.46951
H     -1.76671    -0.60582     0.50735
H     -2.97589    -0.45599     3.71451
H     -1.42308     0.33971     3.99518
H     -2.87762     1.33253     3.80415
