 80
-2292.582419668893
C      1.95023    -1.40370     3.60683
C      1.08004    -2.15298     4.56930
O      1.94415    -0.18666     3.51419
O      2.69530    -2.17719     2.84479
H      3.22834    -1.61812     2.21764
H      0.80001    -1.50468     5.39222
H      0.17767    -2.45851     4.04198
H      1.58639    -3.04516     4.92736
C     -1.38586    -0.36202     1.78783
C     -0.09431    -0.50474     1.06060
O     -1.99544     0.69951     1.88050
O     -1.81711    -1.46380     2.34966
H     -2.69270    -1.32357     2.80250
H      0.57452     0.30041     1.33366
H      0.34884    -1.46179     1.30647
H     -0.26018    -0.43786    -0.00688
C     -1.64625    -3.36959    -3.50211
C     -2.71299    -2.94876    -4.45431
O     -1.71402    -3.16355    -2.29024
O     -0.62924    -3.97996    -4.05273
H      0.06563    -4.20056    -3.37993
H     -2.70537    -1.86122    -4.52149
H     -2.54839    -3.38778    -5.43202
H     -3.68115    -3.23620    -4.05288
C     -2.60056     0.28183    -2.09693
C     -2.94181     1.61663    -1.50576
O     -2.53441     0.04757    -3.27856
O     -2.36182    -0.64731    -1.15634
H     -2.25147    -1.51172    -1.59277
H     -3.64238     2.13349    -2.15709
H     -3.35028     1.49755    -0.50759
H     -2.03563     2.21587    -1.44251
C      1.39784    -3.85340    -1.17582
C      2.64696    -3.93488    -0.35487
O      1.27052    -4.40855    -2.25164
O      0.43447    -3.11997    -0.62855
H     -0.37553    -3.17768    -1.18594
H      3.16041    -2.97547    -0.35469
H      2.39988    -4.16862     0.67743
H      3.30205    -4.69420    -0.76825
C      0.29163     3.53146     1.50770
C      1.33675     4.48605     1.99233
O     -0.16383     3.53540     0.37888
O     -0.09716     2.66033     2.42294
H     -0.74987     2.04551     2.03750
H      1.12743     4.80247     3.01202
H      2.30286     3.98378     1.98129
H      1.37976     5.34356     1.32893
C      2.00805     4.25353    -2.01262
C      2.64998     4.73713    -3.27851
O      2.39579     3.28142    -1.39225
O      0.98540     4.99702    -1.62049
H      0.57508     4.57942    -0.82877
H      2.09831     5.57715    -3.68408
H      3.67484     5.02979    -3.05982
H      2.68348     3.91428    -3.98778
C     -4.88392    -0.12800     3.44457
C     -6.25158    -0.07282     4.05514
O     -4.15096    -1.09604     3.56468
O     -4.55111     0.95929     2.77304
H     -3.63753     0.88104     2.42034
H     -6.82810    -0.92637     3.70869
H     -6.15730    -0.15984     5.13461
H     -6.74521     0.85512     3.79166
C      3.82206     0.50668     0.87634
C      4.48369     1.18598    -0.27504
O      3.99854    -0.67174     1.14829
O      3.02522     1.29170     1.57734
H      2.60934     0.78585     2.31758
H      5.52348     0.87379    -0.33342
H      3.97938     0.87748    -1.18833
H      4.38991     2.26032    -0.18423
C      1.32295     0.41384    -2.74980
C      0.54195    -0.81264    -3.11629
O      2.12810     0.94392    -3.46830
O      1.02604     0.85978    -1.50942
H      1.51677     1.69360    -1.36183
H      1.22725    -1.56994    -3.49027
H      0.00448    -1.19454    -2.26531
H     -0.16600    -0.56446    -3.90135
