 48
-1375.5472150478413
C      0.99002     0.70102     2.89038
C      1.82210     0.68061     4.14643
O      0.15921    -0.13407     2.61520
O      1.29538     1.73256     2.10851
H      0.69393     1.75051     1.33523
H      1.55564    -0.17977     4.75137
H      2.87694     0.63364     3.87954
H      1.66248     1.59587     4.71467
C      1.46854    -1.66041     0.12197
C      0.04445    -2.08843     0.15273
O      1.83885    -0.60408    -0.39221
O      2.30352    -2.48301     0.70147
H      3.23717    -2.13518     0.69892
H     -0.02909    -3.16984     0.19721
H     -0.41091    -1.65157     1.04131
H     -0.48730    -1.69482    -0.70506
C     -0.54881     1.85754    -1.13268
C     -1.28385     2.85654    -1.96766
O     -0.46289     1.91723     0.07772
O     -0.01981     0.87731    -1.84189
H      0.53641     0.31653    -1.26102
H     -1.98425     2.33569    -2.61434
H     -1.81492     3.54951    -1.32514
H     -0.57999     3.40099    -2.59621
C     -3.15986     0.28236     0.58661
C     -2.87668     0.52658     2.02935
O     -2.76347    -0.70401    -0.01937
O     -3.85812     1.24009     0.01248
H     -4.01786     1.01208    -0.93655
H     -3.72666     1.00632     2.50425
H     -2.62135    -0.40379     2.52218
H     -2.01153     1.18200     2.09260
C      5.17995    -0.48983     0.43364
C      6.59193    -0.00302     0.56915
O      4.81829    -1.60286     0.77727
O      4.36878     0.40859    -0.09484
H      3.45598     0.05500    -0.17046
H      6.97303     0.27959    -0.40956
H      6.61113     0.88371     1.19890
H      7.20696    -0.78314     1.00083
C     -4.19719    -0.56835    -2.95943
C     -4.78597    -0.93247    -4.29233
O     -4.16682     0.58635    -2.55447
O     -3.71165    -1.58558    -2.28432
H     -3.33723    -1.26988    -1.41733
H     -5.81381    -0.58048    -4.33488
H     -4.23128    -0.41630    -5.07246
H     -4.74310    -2.00436    -4.44553
