 64
-1834.0681160857832
C     -3.97195    -4.81125    -0.32284
C     -4.92767    -5.89011    -0.73437
O     -4.24358    -3.99916     0.54957
O     -2.83136    -4.81979    -0.97968
H     -2.24489    -4.08748    -0.67189
H     -5.20471    -6.46896     0.14256
H     -5.83380    -5.42788    -1.11800
H     -4.47942    -6.52668    -1.48806
C      3.82245     1.71515     0.56294
C      3.93329     3.19691     0.49684
O      3.07742     1.13167     1.35020
O      4.57980     1.07913    -0.29080
H      4.50563     0.09560    -0.16917
H      3.22892     3.63886     1.19008
H      4.95419     3.49457     0.73040
H      3.70519     3.50686    -0.51860
C      0.87748    -0.75644    -2.14071
C      2.15275    -0.26122    -2.74876
O     -0.18875    -0.19624    -2.24577
O      1.04208    -1.88039    -1.43293
H      0.17663    -2.15839    -1.07314
H      1.99458    -0.07739    -3.80939
H      2.39535     0.68996    -2.27911
H      2.96236    -0.96835    -2.60589
C      3.46660    -2.10301     0.67150
C      3.32547    -3.59263     0.71247
O      4.32651    -1.53710     0.01771
O      2.56842    -1.46004     1.39688
H      2.74581    -0.48648     1.38838
H      4.19708    -4.05734     0.26473
H      3.19574    -3.92531     1.73913
H      2.43495    -3.87039     0.15300
C     -1.63298    -1.90857     0.61479
C     -0.79168    -0.69992     0.84777
O     -1.26030    -2.83320    -0.11089
O     -2.78885    -1.91452     1.22309
H     -3.32000    -2.72534     0.98644
H     -0.83741    -0.08296    -0.04985
H     -1.15169    -0.13990     1.70125
H      0.23621    -1.01352     0.97887
C      0.48720     2.96986    -1.81084
C     -0.08109     2.95019    -3.19583
O      1.62912     2.68467    -1.54450
O     -0.40320     3.32193    -0.87431
H      0.04577     3.40217     0.00781
H      0.57332     3.51275    -3.85962
H     -0.10725     1.91837    -3.53824
H     -1.08433     3.36533    -3.21390
C      0.19233     2.96554     2.43933
C     -0.94235     3.40552     3.29766
O      0.60906     3.59701     1.48002
O      0.72402     1.80915     2.79295
H      1.49093     1.62558     2.22240
H     -1.01230     4.48834     3.28620
H     -1.85785     2.99352     2.87466
H     -0.81676     3.02623     4.30666
C     -3.23659     1.80333     0.05894
C     -4.55887     1.08498     0.04766
O     -2.50443     1.86085     1.02117
O     -2.96726     2.37319    -1.11359
H     -2.06947     2.76267    -1.08489
H     -4.72129     0.61727    -0.91970
H     -4.57576     0.34194     0.83585
H     -5.35840     1.80574     0.21942
