 48
-1375.5509475639947
C     -3.11935     0.47920     2.65207
C     -3.59409     0.06214     4.00494
O     -3.82707     0.46226     1.65697
O     -1.85617     0.85975     2.62791
H     -1.56633     1.00791     1.70165
H     -3.21395    -0.94007     4.19549
H     -3.19145     0.72772     4.76293
H     -4.67795     0.04920     4.02906
C      3.09042    -0.33755    -2.58276
C      3.40486     0.11102    -3.97490
O      2.11094    -1.01565    -2.30820
O      3.94887     0.08490    -1.67918
H      3.68716    -0.23418    -0.77707
H      2.94729     1.08884    -4.11362
H      4.47758     0.20368    -4.11257
H      2.97487    -0.58379    -4.68831
C     -1.69640     0.70170    -0.90747
C     -1.10065     0.51256    -2.26021
O     -1.04655     1.09491     0.06008
O     -2.96454     0.39639    -0.82254
H     -3.29598     0.49033     0.11092
H     -0.53384    -0.41782    -2.24394
H     -1.87111     0.45478    -3.02361
H     -0.40206     1.32019    -2.45870
C      2.19272     2.64712    -0.92141
C      3.50430     3.29976    -0.60700
O      1.69879     2.59135    -2.02206
O      1.63321     2.08513     0.15972
H      0.74958     1.75907    -0.07478
H      3.42835     3.89700     0.29828
H      4.25305     2.52758    -0.44135
H      3.80606     3.91630    -1.44645
C      1.96772    -1.01116     0.95055
C      1.37572    -0.84212     2.30687
O      3.13080    -0.78700     0.68015
O      1.10389    -1.44305     0.03381
H      1.51273    -1.35409    -0.87145
H      2.15034    -0.58314     3.02224
H      0.63005    -0.04917     2.27253
H      0.86959    -1.75532     2.60872
C     -2.35867    -2.55706     0.89232
C     -3.76390    -2.93949     0.53624
O     -1.95228    -2.38924     2.01563
O     -1.58952    -2.39749    -0.19607
H     -0.70867    -2.09857     0.08359
H     -3.77848    -3.62194    -0.30912
H     -4.24303    -3.38577     1.40100
H     -4.30324    -2.03437     0.26042
