 40
-1146.2815683799718
C     -0.62734     0.37132     0.04268
C     -2.11592     0.25073    -0.02495
O      0.03799    -0.14341     0.92878
O     -0.10359     1.07677    -0.93718
H      0.87293     1.13344    -0.84356
H     -2.50688     0.16730     0.98181
H     -2.54985     1.09533    -0.54831
H     -2.37647    -0.66315    -0.55322
C      3.26350     0.71491     0.24410
C      4.74387     0.82268     0.40286
O      2.64688     1.27861    -0.65592
O      2.68006    -0.02520     1.15371
H      1.69037    -0.04694     1.04059
H      4.98345     1.81174     0.78574
H      5.10874     0.05690     1.07864
H      5.21361     0.75087    -0.57336
C      5.05574     3.58774    -2.22769
C      5.53436     4.52053    -3.30455
O      5.58609     3.43942    -1.15463
O      3.95579     2.92394    -2.61091
H      3.64987     2.35885    -1.87943
H      6.42912     5.03126    -2.96816
H      5.74159     3.95777    -4.21272
H      4.75493     5.24386    -3.53679
C     -5.37956    -1.76955     0.12068
C     -6.63476    -1.35634    -0.59035
O     -4.52415    -2.47084    -0.40094
O     -5.28248    -1.29195     1.34079
H     -4.46572    -1.63524     1.79427
H     -6.72127    -0.27257    -0.57373
H     -6.61291    -1.72001    -1.61015
H     -7.49774    -1.76307    -0.06738
C     -2.22193    -2.86077     2.00151
C     -0.98508    -3.28423     2.72748
O     -3.08507    -2.16344     2.51334
O     -2.27199    -3.27657     0.75374
H     -3.12406    -2.99968     0.32498
H     -0.71566    -4.29946     2.45102
H     -0.17710    -2.61879     2.42554
H     -1.14140    -3.19624     3.79676
