 48
-1375.5445565299808
C     -2.42282    -1.30609    -1.00279
C     -3.49676    -2.07919    -1.69931
O     -1.43407    -0.87618    -1.57722
O     -2.61902    -1.13975     0.28374
H     -1.86611    -0.62607     0.66356
H     -3.10770    -3.06805    -1.93825
H     -4.36939    -2.17012    -1.06275
H     -3.75527    -1.58648    -2.63418
C      1.06168    -3.01693    -1.18571
C      1.88346    -4.22450    -1.50264
O      0.93853    -2.57280    -0.04790
O      0.46844    -2.48726    -2.22067
H     -0.18908    -1.80528    -1.93291
H      1.24727    -5.09858    -1.37630
H      2.22840    -4.18630    -2.53000
H      2.71680    -4.29866    -0.81098
C      0.00884     3.10727    -1.14397
C     -0.81956     2.18646    -1.97708
O      1.23024     3.05715    -1.11235
O     -0.70185     3.95274    -0.43015
H     -0.10775     4.53594     0.11080
H     -0.18146     1.52301    -2.54470
H     -1.44925     1.59304    -1.32346
H     -1.45986     2.76731    -2.63646
C      2.13283     5.43904     1.01953
C      2.95742     6.36996     1.85753
O      0.91128     5.43631     1.07095
O      2.83517     4.63054     0.25734
H      2.24087     4.04253    -0.28250
H      4.01355     6.22518     1.66245
H      2.66450     7.39406     1.64114
H      2.73388     6.18238     2.90500
C      0.56121     0.58494     1.44351
C      0.91306     1.87072     2.11562
O     -0.57646     0.26808     1.14998
O      1.60850    -0.16555     1.17719
H      1.32847    -0.98890     0.73193
H      1.61922     2.41122     1.49404
H      0.02330     2.47113     2.26123
H      1.39340     1.67542     3.07142
C     -1.68216    -4.74110     0.75905
C     -2.74500    -5.49631     1.50729
O     -1.47046    -4.85248    -0.42477
O     -1.00841    -3.90991     1.56040
H     -0.34389    -3.45212     1.02354
H     -2.29530    -6.07479     2.31270
H     -3.44435    -4.79340     1.95757
H     -3.26938    -6.15778     0.82632
