 48
-1375.5463425827102
C      0.73873    -0.37539     2.20987
C     -0.21005     0.37350     3.08942
O      0.67970    -0.35983     0.99408
O      1.65891    -1.05455     2.88214
H      2.22366    -1.53530     2.24463
H     -0.26306     1.40494     2.75511
H     -1.20273    -0.05810     2.98067
H      0.11146     0.31697     4.12515
C      1.83826    -1.02227    -1.89307
C      0.95835    -0.83865    -3.08329
O      2.77111    -0.27495    -1.63073
O      1.51622    -2.05988    -1.14896
H      1.91698    -1.97734    -0.26227
H      0.44067    -1.76542    -3.30620
H      0.22234    -0.06981    -2.84408
H      1.54511    -0.49809    -3.93213
C     -0.27801     2.35025    -0.67472
C      1.21407     2.42195    -0.66357
O     -0.90494     1.84850    -1.59688
O     -0.84587     2.85833     0.39578
H     -1.83886     2.88084     0.29287
H      1.57944     1.65883     0.01823
H      1.58899     2.21318    -1.65672
H      1.54253     3.39776    -0.31480
C     -4.04629     2.06539    -0.59491
C     -5.47348     1.68196    -0.36346
O     -3.45924     2.89032     0.08555
O     -3.48698     1.42886    -1.60470
H     -2.51457     1.62532    -1.64242
H     -5.93092     2.38046     0.32772
H     -6.01519     1.66188    -1.30548
H     -5.49473     0.68259     0.06809
C      4.39440    -1.52457     1.00603
C      5.47287    -1.75984     2.01875
O      3.30935    -2.10159     1.07250
O      4.69147    -0.67738     0.06265
H      3.92439    -0.55268    -0.57248
H      5.06666    -1.57583     3.01056
H      5.76949    -2.80587     1.97718
H      6.32614    -1.11990     1.82843
C     -2.83433    -1.29737    -0.12569
C     -3.94229    -1.95693    -0.89158
O     -2.99682    -0.61740     0.85847
O     -1.63277    -1.52381    -0.67293
H     -0.96323    -1.07283    -0.13526
H     -4.76844    -2.16370    -0.21803
H     -4.29041    -1.27217    -1.66493
H     -3.59772    -2.87187    -1.36626
