 48
-1375.5440278545511
C     -1.40444    -1.46627     1.82927
C     -2.35750    -1.72850     2.94413
O     -1.69821    -1.49287     0.64749
O     -0.17734    -1.18454     2.23976
H      0.39256    -1.02600     1.46884
H     -1.90058    -1.48686     3.89772
H     -3.26845    -1.16016     2.78370
H     -2.63561    -2.78094     2.92241
C      1.84674    -0.86814    -0.88553
C      0.52996    -1.04519    -1.56406
O      1.99757    -1.03653     0.32124
O      2.81969    -0.49770    -1.67645
H      3.67033    -0.37709    -1.16711
H      0.65822    -1.23053    -2.62426
H     -0.03375    -1.83572    -1.08622
H     -0.03708    -0.12664    -1.43335
C      1.27458     2.63220    -1.84984
C      2.52843     3.03579    -2.56034
O      0.18470     2.58789    -2.39582
O      1.46934     2.29699    -0.58882
H      0.60145     2.13761    -0.13245
H      2.28556     3.43363    -3.53953
H      3.06983     3.77240    -1.97213
H      3.16104     2.15742    -2.66338
C     -1.96657     1.97703     0.05992
C     -3.22861     1.78789     0.83848
O     -0.85682     1.94180     0.57304
O     -2.16299     2.16817    -1.22469
H     -1.30142     2.33091    -1.68543
H     -3.55175     0.75397     0.72602
H     -3.04878     1.98885     1.88772
H     -4.01219     2.43096     0.44917
C      5.25809    -0.38388     0.80153
C      6.60795    -0.21793     1.43060
O      5.05003    -0.12029    -0.37520
O      4.33121    -0.83388     1.61736
H      3.46390    -0.90547     1.15078
H      7.32375    -0.83928     0.89773
H      6.92584     0.81534     1.31591
H      6.57379    -0.49192     2.47856
C     -5.10383    -1.98611     0.06619
C     -6.38318    -2.41109    -0.60268
O     -5.06455    -1.37513     1.10767
O     -4.02182    -2.36420    -0.62302
H     -3.22058    -2.06292    -0.15357
H     -6.17571    -2.97889    -1.50272
H     -6.96491    -3.00439     0.09934
H     -6.96578    -1.52325    -0.84006
