 56
-1604.7946408615317
C      5.00264     2.62342    -0.69215
C      5.65447     3.95775    -0.50438
O      5.03822     1.75325     0.16534
O      4.38459     2.47974    -1.84661
H      3.96221     1.59135    -1.90694
H      5.15987     4.47395     0.31507
H      6.69172     3.80928    -0.21642
H      5.58655     4.54506    -1.41255
C     -0.44428    -0.16735    -1.84690
C     -1.85175     0.28303    -2.07324
O     -0.05800    -0.74513    -0.85430
O      0.37253     0.16601    -2.84869
H      1.28760    -0.03599    -2.59225
H     -2.14743     0.12058    -3.10718
H     -2.51674    -0.23748    -1.39506
H     -1.91203     1.35055    -1.86602
C      0.12185     1.78864     1.28906
C      1.61054     1.65853     1.28856
O     -0.46873     2.54992     0.54062
O     -0.48847     1.00790     2.15441
H     -5.47528     2.91936     0.16927
H      1.99551     1.97832     0.32692
H      2.03941     2.29178     2.06169
H      1.89009     0.63272     1.49211
C     -0.33225    -3.79673     0.72938
C     -0.33090    -2.65450     1.69390
O     -1.30390    -4.29565     0.21587
O      0.90967    -4.25539     0.44132
H      0.77851    -4.98368    -0.17713
H      0.55200    -2.66808     2.32802
H     -0.34160    -1.73122     1.11970
H     -1.23678    -2.68640     2.28643
C     -4.13765    -1.79360     0.50286
C     -4.38017    -3.25146     0.28485
O     -4.57533    -0.90739    -0.19564
O     -3.34469    -1.55255     1.56034
H     -3.25023    -0.58954     1.64634
H     -5.25553    -3.38485    -0.34223
H     -3.51042    -3.68637    -0.20547
H     -4.49886    -3.75678     1.23941
C     -3.70277     2.04314     0.94486
C     -5.18580     2.07713     0.78743
O     -3.12729     1.28098     1.71984
O     -3.05716     2.89212     0.18555
H     -2.07731     2.82468     0.33042
H     -1.46393     1.11042     2.06667
H     -5.49593     1.14109     0.32630
H     -5.64902     2.13437     1.76943
C      3.34975    -0.83057    -1.13234
C      2.76580    -2.19280    -1.31133
O      3.17223     0.07144    -1.94907
O      4.03847    -0.67135    -0.03294
H      4.44119     0.23830     0.01463
H      3.16738    -2.88322    -0.58004
H      1.69009    -2.11275    -1.16644
H      2.94995    -2.53269    -2.32650
