 64
-1834.0712825892176
C     -2.31583    -0.50798    -0.34410
C     -2.60190    -0.99774    -1.72686
O     -1.28696     0.08003    -0.04715
O     -3.25526    -0.77710     0.53559
H     -3.05792    -0.32226     1.39590
H     -2.02330    -0.41524    -2.43707
H     -2.27018    -2.03298    -1.78664
H     -3.66428    -0.94890    -1.94979
C      2.45385     1.65071     2.97301
C      2.93585     2.54695     4.06440
O      2.46103     1.96264     1.78909
O      2.02299     0.48248     3.38874
H      1.55448     0.01249     2.67010
H      3.43718     1.96750     4.83383
H      3.59566     3.30031     3.64970
H      2.07019     3.03822     4.50586
C      0.67930    -2.27362    -4.97678
C      0.53841    -3.68196    -5.47677
O      1.75315    -1.69426    -4.92254
O     -0.45964    -1.73398    -4.59253
H     -0.30969    -0.81103    -4.26150
H      1.51335    -4.07517    -5.73754
H      0.07745    -4.29329    -4.70366
H     -0.11751    -3.69664    -6.34456
C      1.70998    -0.90853    -0.04461
C      1.51757    -1.78221    -1.23772
O      1.31784    -1.17185     1.08173
O      2.35742     0.21159    -0.31428
H      2.39679     0.79941     0.47238
H      0.63103    -1.43816    -1.76812
H      2.36871    -1.69485    -1.90458
H      1.34276    -2.80565    -0.93237
C     -1.54601     0.50315     3.25629
C     -1.26234     0.78074     4.69433
O     -2.67101     0.47996     2.79124
O     -0.46380     0.31563     2.52223
H     -0.69430     0.17280     1.56996
H     -2.15867     0.61352     5.28282
H     -0.43878     0.16481     5.04148
H     -0.96931     1.82715     4.76932
C     -1.45560    -3.40361     0.94852
C     -2.62359    -4.25843     1.34622
O     -1.01223    -3.33255    -0.17357
O     -0.96999    -2.70075     1.97719
H     -0.22562    -2.14905     1.67206
H     -3.47984    -3.61497     1.54708
H     -2.86847    -4.94100     0.53895
H     -2.39888    -4.81177     2.25583
C     -0.61882     3.50099     1.72646
C     -2.00084     3.81604     1.23415
O     -0.31758     3.35448     2.88696
O      0.25045     3.38273     0.71906
H      1.08088     3.02482     1.06996
H     -2.73087     3.50991     1.97519
H     -2.09113     4.88940     1.06698
H     -2.17188     3.30632     0.29127
C      1.05629     1.22205    -3.45856
C      1.18389     2.55478    -2.78975
O     -0.01918     0.66201    -3.61904
O      2.19888     0.70468    -3.84924
H      2.04927    -0.16937    -4.29556
H      0.23749     2.82056    -2.33375
H      1.96187     2.50038    -2.03499
H      1.47220     3.30314    -3.52622
