 32
-917.0139053147603
C      2.03353    -0.32102    -2.16782
C      3.45396    -0.78190    -2.05052
O      1.52974     0.12146    -3.17028
O      1.36449    -0.45220    -1.00811
H      0.44655    -0.16115    -1.14762
H      3.93880    -0.68665    -3.01630
H      3.97575    -0.18758    -1.30488
H      3.47791    -1.82084    -1.72481
C     -1.88769     1.14139    -1.61200
C     -1.20204     1.63627    -2.84036
O     -1.38112     0.31361    -0.85495
O     -3.07164     1.65449    -1.40728
H     -3.49218     1.29009    -0.57895
H     -1.79536     2.40906    -3.31585
H     -0.21494     2.00269    -2.57444
H     -1.03976     0.80091    -3.51594
C      3.70157    -0.45432     2.05817
C      2.20347    -0.48185     2.02519
O      4.41404     0.25772     1.39809
O      4.20479    -1.35747     2.93251
H      5.16509    -1.27411     2.88233
H      1.83527     0.41481     1.54090
H      1.87085    -1.33627     1.44031
H      1.79987    -0.57301     3.03168
C     -3.78991    -0.16193     1.49801
C     -4.53291    -0.67550     2.69337
O     -4.23566     0.71910     0.77970
O     -2.62209    -0.74108     1.30380
H     -2.17173    -0.35944     0.51360
H     -4.58560     0.11685     3.43640
H     -5.55077    -0.91776     2.40137
H     -4.03269    -1.54289     3.10775
