 40
-1146.2825829546462
C      0.51798    -2.76769    -2.55050
C      0.21945    -4.21126    -2.30284
O     -0.23867    -1.98743    -3.09749
O      1.71021    -2.41489    -2.09626
H      1.79172    -1.44919    -2.14381
H     -0.21881    -4.29594    -1.30965
H     -0.49482    -4.57673    -3.03269
H      1.13786    -4.78772    -2.32496
C      1.56442     0.17251     1.24680
C      1.43909    -0.67866     2.46202
O      0.94602     1.22585     1.10809
O      2.38893    -0.28326     0.33626
H      2.27741     0.21206    -0.50384
H      2.10925    -1.52975     2.40634
H      1.65146    -0.07797     3.34241
H      0.40280    -1.00623     2.52753
C      0.79554     1.42976    -2.27803
C      0.33094     1.76503    -3.65487
O      1.65958     0.58984    -2.05446
O      0.17359     2.09438    -1.33389
H      0.45877     1.79779    -0.43932
H      0.08889     2.82024    -3.73114
H      1.08866     1.47760    -4.37495
H     -0.57334     1.18737    -3.84115
C     -1.69961    -0.61247    -0.40342
C     -2.56491     0.23137     0.47424
O     -0.92250    -1.44398     0.00836
O     -1.84621    -0.32133    -1.70119
H     -1.26589    -0.90776    -2.22814
H     -2.88179    -0.34454     1.33630
H     -1.95537     1.04869     0.85790
H     -3.41680     0.62940    -0.06790
C     -1.16109     1.64845     3.95402
C     -1.74690     2.31695     5.16817
O     -1.61717     0.66526     3.42353
O     -0.05460     2.27413     3.52835
H      0.26959     1.83054     2.72080
H     -1.00186     2.36214     5.96020
H     -2.02859     3.33985     4.92471
H     -2.61628     1.76350     5.50397
