 64
-1834.0620896048254
C     -1.58999     0.10279     0.12487
C     -0.29366    -0.61218    -0.01579
O     -1.67046     1.32585     0.01738
O     -2.62897    -0.64712     0.37569
H     -3.44950    -0.09031     0.49751
H     -0.41187    -1.65641     0.23347
H      0.08474    -0.48048    -1.03078
H      0.42628    -0.14130     0.64363
C      2.80109     1.15444     2.08498
C      2.85066     2.54294     2.61439
O      2.05508     0.29537     2.55201
O      3.60352     0.90695     1.07854
H      3.43429    -0.00227     0.72041
H      3.64572     3.10405     2.13688
H      1.88356     3.01152     2.43277
H      2.98430     2.51348     3.69309
C      2.15642    -1.31763    -3.28352
C      1.98181    -0.70470    -4.63243
O      1.43847    -2.18060    -2.81886
O      3.19012    -0.81155    -2.61221
H      3.17152    -1.15961    -1.70601
H      1.33219    -1.32223    -5.24296
H      1.52291     0.27378    -4.50078
H      2.94904    -0.56569    -5.10836
C      2.41686    -2.38223     0.70477
C      2.36303    -3.75480     0.12895
O      3.02785    -1.45975     0.16483
O      1.78227    -2.23441     1.83885
H      1.87177    -1.30790     2.17029
H      2.25353    -3.68274    -0.94863
H      3.30107    -4.26228     0.35703
H      1.53339    -4.30508     0.55596
C      1.49101     2.03288    -1.55223
C      2.83469     2.68719    -1.70578
O      0.91570     1.45793    -2.44584
O      0.99227     2.14927    -0.31464
H      0.05711     1.86871    -0.31139
H      3.47659     2.02367    -2.27718
H      2.71440     3.61865    -2.25945
H      3.27513     2.89247    -0.73700
C     -4.91249     1.93982     0.15696
C     -6.26768     2.57206     0.05431
O     -4.73651     0.85564     0.69724
O     -3.94091     2.64651    -0.37733
H     -3.07950     2.17592    -0.28460
H     -6.87586     1.98275    -0.62854
H     -6.74888     2.54593     1.02796
H     -6.18338     3.58979    -0.30888
C     -1.06026     2.03881     3.31949
C     -2.54182     2.24724     3.41508
O     -0.23461     2.91590     3.34692
O     -0.75055     0.73742     3.17625
H      0.21342     0.66508     3.11856
H     -2.75980     3.29164     3.60742
H     -2.99841     1.94745     2.47574
H     -2.96478     1.62257     4.19806
C     -1.47695    -3.55268    -1.56516
C     -2.90502    -4.00542    -1.43765
O     -0.64523    -3.68747    -0.69958
O     -1.23814    -2.96304    -2.73977
H     -0.31055    -2.66379    -2.76563
H     -3.35648    -4.12171    -2.41785
H     -2.94351    -4.93574    -0.87770
H     -3.45442    -3.24803    -0.87825
