 72
-2063.3203691405242
C      1.64663    -4.86004     0.73630
C      1.18547    -6.26985     0.85162
O      2.13926    -4.39465    -0.29095
O      1.47400    -4.13859     1.81565
H      1.76011    -3.20655     1.67311
H      0.15096    -6.30188     0.51653
H      1.78126    -6.90626     0.20595
H      1.23211    -6.59338     1.88530
C      1.29547     0.44222    -2.87558
C      1.77465    -0.76198    -3.62956
O      2.00871     1.38387    -2.59393
O      0.01851     0.36273    -2.52323
H     -0.24476     1.19862    -2.06740
H      2.68128    -1.13322    -3.15894
H      1.01169    -1.53085    -3.62831
H      2.01885    -0.47202    -4.65159
C     -0.30274     3.76056    -1.02471
C     -0.50997     4.95841    -1.89393
O     -0.61729     2.62822    -1.33942
O      0.28683     4.03770     0.12288
H      0.41572     3.19245     0.60824
H     -0.67744     5.84335    -1.28729
H      0.39530     5.10298    -2.48224
H     -1.34521     4.79345    -2.56846
C      2.84860    -1.18722     0.39683
C      3.14103     0.25180     0.16028
O      2.24764    -1.58997     1.39433
O      3.26191    -2.00316    -0.54554
H      2.92957    -2.92310    -0.39584
H      3.89278     0.37763    -0.60678
H      2.23552     0.76316    -0.14061
H      3.46536     0.72118     1.08386
C     -6.01122     0.20201     2.20777
C     -7.40261     0.49634     2.68955
O     -5.74782    -0.80737     1.57132
O     -5.12267     1.11593     2.53077
H     -4.22324     0.87128     2.18408
H     -7.73157    -0.31699     3.33162
H     -7.42783     1.43795     3.22558
H     -8.07216     0.52606     1.83352
C     -1.01588    -3.73556    -1.57964
C     -2.16709    -3.23398    -2.39587
O     -1.11627    -4.49868    -0.65306
O      0.15781    -3.22271    -1.99028
H      0.87414    -3.60534    -1.45622
H     -1.86249    -2.38208    -2.99645
H     -2.51048    -4.03838    -3.04600
H     -2.98606    -2.96583    -1.73409
C      3.44075     4.10953    -0.97491
C      3.62376     5.51644    -0.47766
O      3.91188     3.13421    -0.45135
O      2.64773     4.06577    -2.06199
H      2.47302     3.13228    -2.27341
H      4.48067     5.56165     0.18720
H      3.75028     6.20821    -1.30712
H      2.72975     5.80295     0.07507
C     -2.48419    -0.49667     0.86955
C     -1.13063    -0.69805     0.27737
O     -2.74689     0.44355     1.60571
O     -3.36551    -1.41744     0.54690
H     -4.25377    -1.21146     0.94487
H     -0.64337     0.25278     0.11636
H     -0.53843    -1.28651     0.97446
H     -1.19662    -1.23849    -0.65835
C      0.55999     1.47800     2.50027
C     -0.15838     2.38566     3.44283
O      0.66711     1.68963     1.30370
O      1.05071     0.39764     3.07834
H      1.50621    -0.16293     2.41919
H     -0.08974     3.41027     3.08895
H     -1.20849     2.08967     3.44840
H      0.23994     2.29146     4.44962
