 64
-1834.0583322828948
C      0.45946    -0.52453     0.34665
C     -0.84011    -0.43913    -0.38453
O      0.59985    -1.18997     1.35466
O      1.42812     0.19641    -0.18052
H      2.28019    -0.03871     0.25226
H     -0.78746     0.29521    -1.17718
H     -1.06450    -1.41444    -0.80031
H     -1.63895    -0.17913     0.30461
C      2.91519     2.50758     1.78139
C      4.28750     2.60775     1.19882
O      2.63659     1.84979     2.76978
O      2.00822     3.19581     1.10606
H      1.13284     3.00515     1.47255
H      4.36062     3.46159     0.53329
H      5.02108     2.67731     1.99674
H      4.48160     1.69059     0.64484
C     -3.71303    -0.41130    -2.05622
C     -4.15869    -1.79318    -2.40743
O     -3.05428     0.30601    -2.78673
O     -4.12234    -0.01948    -0.85124
H     -3.78016     0.87027    -0.66664
H     -4.71910    -1.75491    -3.33917
H     -3.28056    -2.41321    -2.57971
H     -4.77049    -2.20686    -1.61418
C      3.75208    -1.19652     2.08245
C      4.03340    -2.66473     2.14180
O      3.68437    -0.57670     1.03337
O      3.59391    -0.63061     3.26279
H      3.33817     0.31063     3.15230
H      4.93148    -2.87604     1.56523
H      4.15205    -2.98438     3.17079
H      3.21072    -3.19728     1.66879
C      0.51240    -4.19263    -0.33639
C     -0.13179    -5.33764    -1.06764
O      1.62045    -3.77780    -0.57542
O     -0.30387    -3.67168     0.58851
H      0.08803    -2.84826     0.94953
H     -0.83810    -4.92110    -1.78680
H      0.62530    -5.90495    -1.59897
H     -0.68130    -5.97637    -0.38035
C     -1.22228     1.86668     2.60824
C     -0.61704     1.24807     3.82171
O     -0.65296     2.70401     1.91699
O     -2.42815     1.42276     2.32876
H     -2.74085     1.79807     1.47681
H     -0.49506     0.18376     3.63334
H      0.34809     1.69354     4.02983
H     -1.29470     1.36264     4.66594
C     -2.33736     3.34594    -0.78887
C     -2.75753     3.73574    -2.16707
O     -2.93904     2.50328    -0.12732
O     -1.27806     3.97913    -0.34182
H     -1.00062     3.61919     0.52889
H     -2.82064     2.84011    -2.78087
H     -3.75072     4.17817    -2.12109
H     -2.05194     4.44327    -2.58691
C     -0.23589    -1.49291    -3.48426
C      1.15507    -1.90708    -3.86845
O     -1.04572    -2.24415    -2.99098
O     -0.48287    -0.20687    -3.75122
H     -1.39007     0.01057    -3.46330
H      1.77361    -1.03606    -4.06086
H      1.57570    -2.52002    -3.07637
H      1.09584    -2.51826    -4.76872
