 56
-1604.8047801036494
C      4.87660     0.43904    -2.91426
C      6.22576     1.06660    -3.09437
O      3.85313     1.10667    -2.86614
O      4.89558    -0.86940    -2.79040
H      3.97119    -1.22660    -2.69923
H      6.42535     1.70418    -2.23581
H      6.99078     0.30387    -3.18116
H      6.21108     1.70243    -3.97558
C     -3.32686    -2.37707    -0.73369
C     -4.01530    -3.70374    -0.85980
O     -2.42132    -2.18547     0.06099
O     -3.78511    -1.45074    -1.54603
H     -3.25587    -0.61721    -1.43010
H     -4.34531    -4.02685     0.12468
H     -4.85478    -3.63320    -1.54196
H     -3.29887    -4.43825    -1.22132
C     -0.38940     1.58112     3.56974
C      0.76870     1.93796     4.44158
O     -1.13601     2.41143     3.08200
O     -0.52598     0.28115     3.35143
H     -5.50811    -0.47822     1.89054
H      1.67473     1.81384     3.85189
H      0.67573     2.96975     4.75948
H      0.81529     1.26639     5.29457
C      1.41317    -1.10816    -2.69209
C      0.06135    -1.74681    -2.73584
O      2.43707    -1.74337    -2.49204
O      1.38850     0.19475    -2.88271
H      2.31410     0.56068    -2.88209
H      0.15770    -2.82538    -2.76148
H     -0.50068    -1.46287    -1.84876
H     -0.49131    -1.38999    -3.59857
C     -1.40458     0.88027    -0.42581
C     -0.60806     2.13624    -0.45307
O     -2.36904     0.69045    -1.14324
O     -0.97880    -0.01817     0.44055
H     -1.56444    -0.82383     0.42601
H     -0.16719     2.25511    -1.44069
H     -1.28277     2.97298    -0.27704
H      0.15852     2.10061     0.31269
C     -3.74753     0.70808     1.93070
C     -5.11752     0.41029     1.40612
O     -3.00681    -0.15512     2.36544
O     -3.41751     1.97796     1.83782
H     -2.55156     2.15045     2.28834
H     -1.37793     0.09531     2.88161
H     -5.78114     1.25580     1.55579
H     -5.02835     0.22480     0.33781
C      2.44996     0.04121     1.30076
C      3.75745    -0.32114     0.65615
O      2.13155     1.16377     1.61210
O      1.66982    -1.03005     1.50067
H      0.78307    -0.73121     1.76381
H      3.58472    -1.01348    -0.16142
H      4.23762     0.57778     0.28834
H      4.40562    -0.80589     1.38554
