 56
-1604.8045691259183
C      2.57135     2.06590     1.27204
C      1.99581     3.43244     1.48701
O      3.69289     1.73895     1.56807
O      1.68461     1.22478     0.71339
H      2.10333     0.35480     0.59852
H      1.10521     3.36656     2.10583
H      2.73650     4.06631     1.96385
H      1.69276     3.87041     0.54008
C     -4.29135    -2.22050    -2.22088
C     -5.38469    -2.02987    -3.23273
O     -3.18354    -2.64870    -2.51209
O     -4.64217    -1.88696    -0.99892
H     -3.87542    -1.99247    -0.37796
H     -6.25268    -2.61739    -2.94271
H     -5.68425    -0.98447    -3.24803
H     -5.03566    -2.33315    -4.21239
C     -1.29212     2.62125     0.15092
C     -1.65318     1.24209    -0.30111
O     -1.48907     3.01349     1.29110
O     -0.74520     3.36152    -0.78952
H      0.71935     7.88253     1.42796
H     -0.76178     0.74224    -0.66537
H     -2.07705     0.68691     0.52696
H     -2.36384     1.29422    -1.12352
C      1.71284    -3.94721    -1.82137
C      1.11145    -4.70744    -2.95741
O      2.04958    -4.46488    -0.76701
O      1.83264    -2.65528    -2.05690
H      2.16499    -2.19516    -1.25382
H      1.57248    -4.40701    -3.89417
H      1.22641    -5.77217    -2.79024
H      0.05366    -4.45683    -3.00579
C     -1.52069    -2.69506     0.35092
C     -0.42588    -2.89145     1.35092
O     -2.56093    -2.11088     0.60255
O     -1.23754    -3.20206    -0.83197
H     -1.96799    -3.01024    -1.48118
H      0.49930    -2.50523     0.93403
H     -0.66524    -2.38137     2.27609
H     -0.28405    -3.95412     1.52972
C     -0.57253     6.21069     1.26093
C     -0.30298     7.62344     1.68937
O     -0.34848     5.82751     0.12191
O     -1.05002     5.43985     2.21245
H     -1.24619     4.52595     1.87135
H     -0.60125     4.28933    -0.46891
H     -0.96080     8.28946     1.13606
H     -0.46758     7.73007     2.75504
C      3.48724    -2.03477     0.96841
C      4.38450    -1.29993     1.90702
O      2.68147    -1.46350     0.23234
O      3.62394    -3.33455     0.99040
H      3.02161    -3.77501     0.32521
H      3.78938    -0.64006     2.52977
H      4.95697    -2.00120     2.50361
H      5.04333    -0.65655     1.32943
