 48
-1375.5489482550774
C     -1.25466    -0.68968     1.17456
C     -0.91874     0.75409     1.35115
O     -2.09522    -1.07951     0.37578
O     -0.54795    -1.50885     1.92795
H     -0.79442    -2.45812     1.74965
H     -0.08316     0.99891     0.70059
H     -1.75997     1.36778     1.05668
H     -0.63392     0.95713     2.37697
C      0.84426    -1.54514    -1.73799
C     -0.17462    -1.55437    -2.83024
O      1.42638    -0.52540    -1.37979
O      1.04073    -2.70759    -1.17044
H      1.71332    -2.64232    -0.42926
H     -0.15483    -2.50372    -3.35738
H     -1.15177    -1.43463    -2.36537
H      0.00313    -0.73069    -3.51227
C      0.43088     2.87338    -1.97458
C      0.24336     4.17749    -2.67734
O      0.28670     2.69498    -0.78148
O      0.76846     1.88029    -2.79772
H      0.88178     1.06241    -2.27763
H      0.55448     4.99042    -2.03158
H      0.78375     4.17815    -3.61827
H     -0.81958     4.31452    -2.87197
C     -1.27075     5.23362     0.93857
C     -1.88439     6.07061     2.03126
O     -1.07333     5.62178    -0.18511
O     -0.97876     4.00175     1.37914
H     -0.56749     3.48232     0.65858
H     -2.77910     5.58132     2.41055
H     -1.18307     6.16314     2.85820
H     -2.13018     7.05018     1.63945
C      2.64331    -1.52113     1.58620
C      2.87870    -1.57671     3.06267
O      2.64687    -2.50371     0.86162
O      2.41948    -0.30053     1.13652
H      2.14570    -0.34338     0.19548
H      3.52113    -0.75615     3.37209
H      1.91793    -1.46369     3.56337
H      3.31198    -2.53319     3.33260
C     -1.39038    -4.31045     0.16724
C     -1.01097    -5.61148    -0.46993
O     -1.06179    -3.99571     1.29968
O     -2.10450    -3.53197    -0.62258
H     -2.20532    -2.63546    -0.21377
H     -1.85449    -6.02257    -1.01859
H     -0.20684    -5.41684    -1.17849
H     -0.66330    -6.30612     0.28611
