 80
-2292.590587715308
C      2.20738    -1.39974     1.43596
C      0.93819    -2.16202     1.22269
O      2.26698    -0.34562     2.04394
O      3.26891    -1.98212     0.91118
H      4.06896    -1.39837     1.01500
H      1.11417    -3.23096     1.25396
H      0.19781    -1.86883     1.95474
H      0.54527    -1.90956     0.24214
C     -1.98314     0.09918     1.28969
C     -0.61850     0.66628     1.44055
O     -2.97216     0.80392     1.11286
O     -2.07181    -1.21016     1.36694
H     -3.01877    -1.50917     1.41741
H     -0.17872     0.33217     2.37626
H      0.02512     0.30575     0.64552
H     -0.67357     1.74441     1.37896
C     -1.38114    -3.79820    -1.10056
C     -2.86821    -3.76350    -1.03468
O     -0.71783    -4.70045    -0.62586
O     -0.82806    -2.75498    -1.71768
H      0.13060    -2.94174    -1.91248
H     -3.16718    -3.59782    -0.00103
H     -3.25473    -2.96428    -1.65463
H     -3.26126    -4.73046    -1.34324
C     -2.66587     0.44066    -2.15658
C     -2.75661     1.92914    -2.34099
O     -3.59207    -0.32966    -2.22355
O     -1.41313     0.05345    -1.86365
H     -1.37263    -0.91438    -1.79145
H     -3.65417     2.17895    -2.89746
H     -2.80812     2.38274    -1.35230
H     -1.86738     2.31001    -2.83485
C      2.41186    -4.03476    -1.48085
C      3.90187    -4.03147    -1.58294
O      1.69150    -3.26714    -2.10366
O      1.94550    -4.93363    -0.64256
H      0.95570    -4.90645    -0.62394
H      4.21124    -3.42069    -2.42154
H      4.30920    -3.62275    -0.66126
H      4.27109    -5.04760    -1.69565
C     -2.85147     4.11539     1.20647
C     -2.96288     5.56569     1.57222
O     -1.95353     3.65314     0.52456
O     -3.83805     3.38370     1.69370
H     -3.68254     2.44988     1.46083
H     -3.17277     5.66271     2.63421
H     -2.04893     6.08904     1.31719
H     -3.79789     6.00480     1.02854
C      1.28235     3.94304     0.08003
C      2.70285     4.41034     0.12132
O      0.94402     2.79812    -0.16297
O      0.40211     4.89638     0.35496
H     -0.49703     4.49623     0.37150
H      3.12745     4.13824     1.08739
H      3.27286     3.89246    -0.64304
H      2.74994     5.48846    -0.00511
C     -5.57230    -1.36707     1.18981
C     -6.95724    -1.94356     1.19701
O     -4.57616    -2.00928     1.48934
O     -5.53181    -0.10205     0.82311
H     -4.60743     0.22142     0.82838
H     -7.60856    -1.31742     1.80130
H     -7.34720    -1.94350     0.18125
H     -6.93464    -2.95464     1.58580
C      5.22617     0.88464     1.26018
C      6.37745     1.80461     1.00313
O      5.28207    -0.32010     1.06307
O      4.14572     1.49455     1.70098
H      3.41251     0.84767     1.83665
H      6.55079     2.43637     1.87119
H      7.26296     1.22617     0.76711
H      6.12011     2.44594     0.16248
C      3.32130     0.81844    -1.58939
C      3.88647    -0.38427    -2.28625
O      3.89935     1.87676    -1.50381
O      2.12433     0.57844    -1.05936
H      1.72103     1.41258    -0.73004
H      3.10935    -0.91471    -2.82938
H      4.68613    -0.07967    -2.95484
H      4.29254    -1.06069    -1.53634
