 48
-1375.5453481099028
C     -1.42817    -1.48493     1.96590
C     -2.41511    -1.40188     3.07870
O     -1.70365    -1.75349     0.80998
O     -0.18624    -1.21617     2.34556
H      0.37911    -1.17458     1.55862
H     -1.92399    -1.57663     4.03089
H     -2.84878    -0.40133     3.08431
H     -3.22673    -2.09814     2.90602
C      1.60493    -0.88677    -1.04931
C      0.30367    -1.11011    -1.73870
O      1.79325    -1.13166     0.13639
O      2.53051    -0.38022    -1.82967
H      3.36602    -0.19840    -1.32799
H      0.46065    -1.57037    -2.71060
H     -0.34459    -1.71801    -1.12023
H     -0.16379    -0.13969    -1.89586
C      1.61537     2.66126    -1.51002
C      2.92902     3.17952    -1.99951
O      0.62636     2.56644    -2.21785
O      1.63622     2.28897    -0.24643
H      0.73649     1.98535     0.03372
H      3.28528     3.96496    -1.33792
H      3.65003     2.36456    -1.97309
H      2.82531     3.55138    -3.01285
C     -1.84598     1.80150    -0.18836
C     -3.20068     1.62412     0.41801
O     -0.81355     1.61377     0.43918
O     -1.86440     2.15532    -1.45241
H     -0.94110     2.31988    -1.77827
H     -3.20253     2.00865     1.43243
H     -3.95949     2.11589    -0.18054
H     -3.42543     0.56073     0.46597
C      5.06854    -0.23357     0.55620
C      6.43069    -0.03786     1.14884
O      4.74936     0.23579    -0.52675
O      4.25545    -0.95061     1.30295
H      3.36877    -1.02506     0.88333
H      6.50158    -0.52807     2.11260
H      7.17291    -0.43829     0.46263
H      6.62035     1.02792     1.24859
C     -5.10261    -2.12633     0.23738
C     -6.40284    -2.57563    -0.37238
O     -5.03178    -1.46933     1.24797
O     -4.04409    -2.53756    -0.46909
H     -3.22265    -2.24292    -0.02981
H     -6.93874    -3.18390     0.35340
H     -7.01503    -1.70023    -0.57819
H     -6.22579    -3.13924    -1.28125
