 48
-1375.551663624105
C     -4.69610     0.28759     0.01921
C     -5.62615     0.95142     0.98408
O     -4.67465    -0.91811    -0.16958
O     -3.89163     1.13215    -0.59750
H     -3.15500     0.63886    -1.01493
H     -6.47630     0.31017     1.19011
H     -5.07417     1.12300     1.90753
H     -5.94571     1.91374     0.59568
C      4.46941     0.85785    -2.45443
C      4.99644     1.40066    -3.75093
O      3.89534    -0.22174    -2.39516
O      4.66891     1.63342    -1.41345
H      4.32983     1.19724    -0.58238
H      4.17152     1.49025    -4.45376
H      5.47104     2.36285    -3.59762
H      5.70340     0.68823    -4.16916
C     -1.50575    -1.43157    -1.15472
C     -0.19048    -2.11649    -1.31627
O     -1.64647    -0.22017    -1.30165
O     -2.49689    -2.22664    -0.84078
H     -3.33255    -1.72044    -0.65689
H      0.44407    -1.52528    -1.96476
H      0.28304    -2.17378    -0.33883
H     -0.32363    -3.11836    -1.71280
C      0.47862     1.97792     0.31584
C      1.32944     3.19663     0.48555
O     -0.25505     1.52934     1.17100
O      0.64363     1.39615    -0.86485
H     -0.03878     0.70632    -0.96090
H      1.10077     3.92426    -0.29085
H      1.16291     3.63213     1.46453
H      2.37376     2.90883     0.38206
C      2.99749    -0.45464     0.79017
C      2.36450    -0.91893     2.05829
O      3.74089     0.51644     0.74642
O      2.67446    -1.16344    -0.26799
H      3.13177    -0.81896    -1.08131
H      1.51621    -0.27389     2.27286
H      1.99403    -1.93147     1.95730
H      3.08308    -0.83518     2.86863
C     -1.76998    -1.40621     2.15384
C     -2.77235    -2.37445     2.70257
O     -0.64301    -1.69469     1.82895
O     -2.27247    -0.17614     2.01803
H     -1.56519     0.41500     1.69035
H     -2.27203    -3.28838     3.00506
H     -3.31235    -1.94125     3.54107
H     -3.49327    -2.60811     1.91988
