 32
-917.0156297021642
C      2.25284    -0.68027    -1.73669
C      3.57262    -1.37432    -1.82541
O      2.10038     0.50775    -1.56818
O      1.21910    -1.52508    -1.87047
H      0.39674    -1.01049    -1.80227
H      3.48812    -2.26471    -2.44119
H      4.31089    -0.68621    -2.22644
H      3.87629    -1.66365    -0.82024
C     -1.44175     0.91727    -1.83092
C     -0.68353     1.26564    -3.06994
O     -1.26879    -0.14598    -1.23553
O     -2.28471     1.82946    -1.43154
H     -2.74021     1.56550    -0.58033
H     -0.56855     0.37195    -3.67503
H     -1.18639     2.05467    -3.61874
H      0.31270     1.58896    -2.77202
C      2.36199    -0.50608     2.00710
C      1.13346     0.16338     1.47990
O      3.09934    -1.22223     1.37504
O      2.59436    -0.23720     3.30980
H      3.40428    -0.70778     3.54063
H      0.41387    -0.60144     1.20118
H      0.68685     0.83295     2.20598
H      1.39302     0.70175     0.57536
C     -3.22924     0.21046     1.50057
C     -3.86298    -0.02459     2.83870
O     -3.49617     1.18630     0.81645
O     -2.36845    -0.72104     1.14131
H     -1.98940    -0.52441     0.25183
H     -3.44776    -0.90830     3.30878
H     -3.70572     0.85207     3.46111
H     -4.93519    -0.13787     2.70025
