 48
-1375.540113539611
C      0.23890     1.62016     3.30964
C      0.08204     3.03141     3.79604
O     -0.15801     0.64040     3.88982
O      0.86734     1.56505     2.12287
H      0.92069     0.63430     1.85062
H      1.06121     3.48942     3.93136
H     -0.45713     3.61100     3.04969
H     -0.46240     3.03254     4.73411
C      3.29465    -1.33019    -1.82903
C      4.47639    -1.26811    -2.75371
O      2.18328    -1.68397    -2.18816
O      3.57061    -0.95347    -0.59724
H      2.76043    -1.00881    -0.03257
H      4.17618    -1.56409    -3.75166
H      4.87324    -0.25544    -2.76473
H      5.26071    -1.92607    -2.38657
C      0.30289     3.08954    -1.53755
C      0.91443     1.73441    -1.40179
O     -0.63961     3.51340    -0.90141
O      0.90615     3.85038    -2.46382
H      0.44341     4.69832    -2.47990
H      1.85142     1.81580    -0.85569
H      0.24812     1.08726    -0.84420
H      1.12422     1.30172    -2.37537
C     -2.30445     0.96953     0.94938
C     -3.21240     0.34047     1.95120
O     -1.69474     0.34965     0.09917
O     -2.19925     2.28241     1.09753
H     -1.62195     2.65114     0.39697
H     -3.89174     1.07509     2.37327
H     -3.75251    -0.48009     1.49011
H     -2.58848    -0.06646     2.74612
C      0.48321    -1.87311     0.68857
C     -0.52293    -2.23887     1.72068
O      1.33875    -1.00742     0.86096
O      0.38830    -2.55320    -0.42684
H      1.02460    -2.21833    -1.10784
H     -0.49464    -3.31154     1.89906
H     -0.31660    -1.68447     2.62741
H     -1.51536    -2.00512     1.33913
C     -2.70280    -2.64890    -1.27771
C     -2.57435    -3.89718    -2.10253
O     -3.04674    -2.62461    -0.12074
O     -2.37793    -1.55367    -1.97403
H     -2.33802    -0.81525    -1.34733
H     -3.18476    -4.68164    -1.66707
H     -2.86418    -3.70166    -3.13129
H     -1.53151    -4.21240    -2.09100
