 80
-2292.5799807648496
C      5.34437    -0.50636     0.52637
C      6.15964    -1.61454    -0.05055
O      4.71512    -0.61984     1.57908
O      5.34760     0.59780    -0.17574
H      4.74768     1.28150     0.21224
H      6.84641    -1.23078    -0.79641
H      6.68685    -2.13237     0.74510
H      5.47299    -2.32520    -0.50874
C     -1.97235     3.12854     0.94334
C     -2.22206     4.59110     0.79539
O     -1.97998     2.32405     0.02298
O     -1.70850     2.75275     2.18956
H     -1.62801     1.77502     2.20856
H     -2.46596     5.02491     1.75904
H     -1.30874     5.04117     0.40895
H     -2.99994     4.75658     0.05865
C     -2.99893    -2.00956    -0.92019
C     -2.97344    -0.52758    -0.89208
O     -2.49084    -2.70308    -0.03038
O     -3.60257    -2.53982    -1.94600
H     -3.60900    -3.53571    -1.90000
H     -3.07108    -0.19027     0.13143
H     -2.00800    -0.18917    -1.26465
H     -3.75223    -0.12370    -1.52798
C     -3.52455     3.44018    -2.88530
C     -4.27063     3.47750    -4.19365
O     -3.14653     4.41979    -2.29130
O     -3.32665     2.18350    -2.46479
H     -2.84001     2.18467    -1.61787
H     -3.73534     2.89370    -4.94005
H     -5.25376     3.02754    -4.06726
H     -4.37282     4.50510    -4.52300
C     -3.43221    -5.82930    -0.80420
C     -3.68675    -7.30422    -0.71136
O     -3.69902    -5.18660    -1.80726
O     -2.90393    -5.30314     0.28415
H     -2.75353    -4.33266     0.17046
H     -4.75699    -7.47871    -0.79097
H     -3.21375    -7.79882    -1.55527
H     -3.30980    -7.69597     0.22587
C      0.77656     0.30112    -1.03385
C      2.15523    -0.27980    -1.06638
O     -0.02607     0.24262    -1.92910
O      0.50897     0.90728     0.14033
H     -0.43459     1.17613     0.14416
H      2.24235    -0.99957    -1.87320
H      2.88087     0.51435    -1.22272
H      2.38154    -0.76052    -0.12330
C      2.70055    -3.33614     1.02549
C      1.75452    -4.49437     1.13933
O      3.29423    -3.02111     0.02205
O      2.80656    -2.65784     2.18063
H      3.46887    -1.95545     2.06429
H      0.73236    -4.12174     1.16019
H      1.87599    -5.15009     0.28274
H      1.93540    -5.03462     2.06521
C     -0.84184    -0.76213     2.41118
C      0.09076    -0.51562     3.55404
O     -1.56719     0.09151     1.92948
O     -0.81652    -2.00651     1.97439
H     -1.45305    -2.14784     1.23898
H      0.59196     0.43776     3.41417
H     -0.48805    -0.46099     4.47603
H      0.81524    -1.31723     3.62215
C      2.88007     2.14470     1.79942
C      1.78125     3.07466     2.18513
O      3.61528     2.34338     0.83620
O      2.99895     1.08832     2.57033
H      3.70152     0.48284     2.22767
H      2.03139     4.09252     1.91146
H      0.90411     2.79086     1.61374
H      1.55442     2.99622     3.24248
C      1.11340     3.76104    -1.55007
C      0.40458     3.84629    -2.86810
O      0.66966     4.17391    -0.50515
O      2.30497     3.15648    -1.65190
H      2.71164     3.12266    -0.77341
H     -0.07969     2.89223    -3.06820
H     -0.35320     4.61944    -2.81345
H      1.10819     4.05019    -3.67205
