 40
-1146.2819685798488
C      1.08096    -2.35414    -0.58318
C      0.13884    -3.44643    -0.97916
O      1.54856    -2.24811     0.53948
O      1.33212    -1.49194    -1.55159
H      2.04254    -0.86617    -1.27638
H      0.21689    -4.27136    -0.27906
H     -0.87287    -3.04400    -0.94835
H      0.34765    -3.77184    -1.99434
C      4.08849    -0.07818     0.20835
C      5.38580     0.62143     0.42978
O      3.39682     0.09772    -0.79463
O      3.74200    -0.89895     1.16455
H      2.89549    -1.37905     0.94612
H      5.17664     1.67571     0.59843
H      5.89536     0.19434     1.28516
H      5.99019     0.54024    -0.47005
C      2.46376     3.38137    -0.23192
C      1.77697     4.71825    -0.29300
O      3.37224     3.10822     0.51349
O      1.93339     2.51014    -1.10219
H      2.43253     1.67730    -1.04265
H      1.74086     5.07464    -1.31991
H      0.75074     4.61362     0.05630
H      2.30346     5.42503     0.33772
C     -5.67548    -1.08012     0.39025
C     -7.09301    -1.56606     0.30106
O     -5.37677    -0.07238     1.01371
O     -4.80901    -1.82792    -0.25593
H     -3.88893    -1.45835    -0.17498
H     -7.14141    -2.49134    -0.26088
H     -7.48264    -1.70624     1.30604
H     -7.69666    -0.79895    -0.17813
C     -2.06855     0.21093     0.49686
C     -0.66828     0.73684     0.47106
O     -2.36559    -0.84672    -0.04521
O     -2.92802     0.96697     1.13245
H     -3.84230     0.57548     1.09995
H     -0.32803     0.72425    -0.55855
H     -0.62108     1.74069     0.87589
H     -0.02863     0.07002     1.04349
