 48
-1375.5366203348992
C      2.21289     2.08401     2.17076
C      1.27173     3.05803     2.81438
O      3.37477     2.28987     1.92656
O      1.60605     0.91368     1.88348
H      2.26447     0.31958     1.48999
H      0.89807     2.63959     3.74768
H      1.79631     3.98674     3.00910
H      0.41672     3.23467     2.16576
C      2.25718    -3.74852    -1.81118
C      1.44711    -4.81898    -2.46287
O      1.74961    -2.79979    -1.21313
O      3.54964    -3.90394    -1.91971
H      4.04466    -3.18546    -1.43946
H      0.88661    -5.35074    -1.69946
H      0.71217    -4.35498    -3.11542
H      2.08744    -5.49517    -3.01839
C     -2.07650     1.88067     0.21378
C     -1.00727     0.84600     0.06690
O     -1.94139     2.85855     0.93846
O     -3.15545     1.64451    -0.49448
H     -3.83242     2.36005    -0.35470
H     -0.08996     1.33840    -0.24258
H     -0.81314     0.39827     1.03710
H     -1.30492     0.09454    -0.65216
C     -4.83071     4.51361     0.63396
C     -5.91272     5.53822     0.81263
O     -4.96750     3.55131    -0.10709
O     -3.74724     4.74933     1.33961
H     -3.06395     4.04233     1.19016
H     -5.58356     6.32045     1.48635
H     -6.17103     5.95206    -0.15875
H     -6.80048     5.04715     1.20371
C      4.42889    -1.25143     0.20490
C      5.26994    -0.37872     1.06791
O      4.88294    -2.02981    -0.61013
O      3.11933    -1.10960     0.40191
H      2.61182    -1.71787    -0.18960
H      4.98192     0.65964     0.93389
H      5.09073    -0.63167     2.11085
H      6.31624    -0.52579     0.82334
C     -1.86544    -3.40823    -1.51275
C     -3.29579    -3.04664    -1.79263
O     -1.47737    -4.49876    -1.17913
O     -1.04323    -2.35871    -1.69186
H     -0.12952    -2.64732    -1.51809
H     -3.59437    -2.19685    -1.18238
H     -3.40320    -2.75466    -2.83637
H     -3.93094    -3.89962    -1.58226
