 56
-1604.8041109723952
C      2.64538    -0.52313    -1.15136
C      4.03993    -0.40149    -0.63203
O      1.96842     0.44043    -1.50101
O      2.20472    -1.75170    -1.20681
H      1.27727    -1.77277    -1.56458
H      4.70362    -1.05351    -1.19687
H      4.36079     0.62900    -0.69575
H      4.05941    -0.72204     0.40682
C     -0.95751    -0.79551    -2.45892
C     -2.31617    -0.96987    -3.04926
O     -0.22225    -1.72205    -2.16781
O     -0.61938     0.46740    -2.26979
H      0.30824     0.51680    -1.94578
H     -3.03182    -0.41594    -2.44874
H     -2.32791    -0.55207    -4.05564
H     -2.56736    -2.02409    -3.07351
C      2.28285     0.98133     2.66847
C      3.68221     0.63768     3.05626
O      1.66074     1.92067     3.13294
O      1.76850     0.17235     1.75649
H     -2.64819     2.30523    -0.17746
H      3.79248    -0.43810     3.16083
H      4.34555     0.98288     2.26440
H      3.93635     1.14291     3.98168
C     -2.12570    -4.74940    -0.57651
C     -1.28797    -3.91314     0.34137
O     -2.76071    -4.34061    -1.51780
O     -2.13097    -6.06055    -0.24397
H     -2.69259    -6.49424    -0.89725
H     -0.73091    -3.19015    -0.25137
H     -1.94240    -3.34740     0.99853
H     -0.61926    -4.52941     0.93589
C     -3.79795    -0.57664     0.13767
C     -4.75673    -1.72477     0.07926
O     -4.09465     0.57829    -0.04484
O     -2.54020    -0.97996     0.38219
H     -1.96769    -0.20342     0.52060
H     -4.53736    -2.32960    -0.79826
H     -4.64277    -2.35937     0.95465
H     -5.77069    -1.34287     0.01966
C     -0.94276     2.26272     1.06849
C     -1.79195     2.93600     0.04492
O     -0.70955     1.05573     1.07172
O     -0.44607     3.07120     1.97631
H      0.26175     2.61656     2.49626
H      0.85439     0.45719     1.53290
H     -2.09973     3.91782     0.39338
H     -1.20041     3.03666    -0.86534
C      2.87616     3.36104     0.44563
C      2.69700     4.68243     1.12706
O      3.84522     2.64813     0.56490
O      1.82492     3.03147    -0.31525
H      1.99918     2.17443    -0.74211
H      2.28624     5.41723     0.43860
H      1.99023     4.55637     1.94629
H      3.64790     5.01744     1.52688
