 48
-1375.5402133507096
C      1.10947     0.70757     2.65334
C      1.95874    -0.12009     3.56181
O      1.30799     1.88876     2.42784
O      0.12907     0.02298     2.08496
H     -0.43487     0.61678     1.54860
H      2.60200     0.52360     4.15150
H      1.32963    -0.73301     4.20216
H      2.56597    -0.78406     2.94804
C      3.48299    -4.53371    -0.40464
C      3.81491    -5.98884    -0.24152
O      2.87338    -4.11508    -1.37885
O      3.90111    -3.76920     0.57865
H      3.64784    -2.81894     0.42599
H      2.89218    -6.56376    -0.25316
H      4.41042    -6.31190    -1.09190
H      4.35383    -6.15313     0.68439
C     -0.92595     2.78884     0.04246
C     -1.54120     3.51962    -1.09823
O     -1.42018     1.77239     0.53928
O      0.20948     3.28929     0.45602
H      0.58441     2.78279     1.22739
H     -2.61456     3.58897    -0.94946
H     -1.08391     4.49748    -1.20859
H     -1.36013     2.92040    -1.99040
C     -5.11628     2.11517     0.65263
C     -6.50456     2.27614     1.20421
O     -4.83408     2.02846    -0.51547
O     -4.19555     2.08460     1.63440
H     -3.33073     1.95340     1.22228
H     -6.73301     1.45113     1.87687
H     -6.56846     3.19746     1.78082
H     -7.21643     2.29793     0.38713
C      2.62924    -0.82522    -0.80262
C      2.23926     0.60830    -0.94435
O      3.19986    -1.25517     0.19044
O      2.27277    -1.57712    -1.82090
H      2.50606    -2.53084    -1.66267
H      2.81911     1.21383    -0.26001
H      2.34471     0.94978    -1.96699
H      1.18817     0.69157    -0.69141
C     -1.08875    -0.30385    -2.36170
C     -1.00173    -1.39317    -3.38757
O     -0.52605     0.76438    -2.44069
O     -1.84956    -0.63682    -1.31313
H     -1.85684     0.12272    -0.71116
H     -1.95817    -1.90090    -3.48455
H     -0.68890    -0.97061    -4.33658
H     -0.25762    -2.12015    -3.06512
