 48
-1375.5424277165305
C     -2.48846    -3.71598     1.52121
C     -3.10157    -5.08578     1.48367
O     -2.02534    -3.24294     2.54671
O     -2.50176    -3.09347     0.36148
H     -2.07528    -2.20065     0.42328
H     -3.52195    -5.28756     0.50537
H     -2.33442    -5.81819     1.72336
H     -3.86684    -5.15178     2.25253
C      1.57183    -0.50903    -1.36554
C      0.37656    -0.35328    -2.24394
O      2.06403     0.43432    -0.74329
O      2.04284    -1.72463    -1.29820
H      2.80634    -1.79400    -0.66190
H     -0.49808    -0.24089    -1.60848
H      0.47519     0.55046    -2.83321
H      0.25640    -1.22526    -2.87910
C      0.29495     3.56575    -1.79723
C     -0.06118     5.00639    -1.64163
O     -0.18058     2.82194    -2.63483
O      1.17995     3.15148    -0.90279
H      1.35933     2.20206    -1.02839
H      0.78996     5.57027    -1.27435
H     -0.41764     5.40107    -2.58704
H     -0.86344     5.07104    -0.90839
C     -2.92292     1.89017    -0.95545
C     -4.25568     1.30093    -0.58463
O     -2.33067     2.70075    -0.28315
O     -2.46152     1.38255    -2.10097
H     -1.60266     1.79996    -2.32411
H     -4.92611     1.31691    -1.44172
H     -4.11116     0.26311    -0.29296
H     -4.68377     1.85631     0.24341
C      4.56181    -1.09503     1.04977
C      5.69770    -1.31652     2.00121
O      4.07173    -1.99824     0.39133
O      4.14498     0.15514     0.99672
H      3.39384     0.24787     0.36793
H      5.35376    -1.95820     2.80888
H      6.49587    -1.84183     1.48411
H      6.05079    -0.37179     2.39768
C     -0.95228    -0.18234     1.56204
C     -0.40965     1.20517     1.60668
O     -1.34403    -0.70786     0.52635
O     -0.96866    -0.77837     2.72991
H     -1.35222    -1.69212     2.66115
H      0.52963     1.21638     2.15104
H     -0.27266     1.56644     0.59846
H     -1.11473     1.85446     2.11904
