 56
-1604.8051997806556
C      3.45009     2.85859     0.36901
C      2.84359     4.22649     0.32941
O      4.29183     2.49196     1.15081
O      2.92231     2.05881    -0.57170
H      3.21869     1.15118    -0.40249
H      1.87337     4.19723     0.82095
H      3.47793     4.92616     0.86171
H      2.68440     4.54927    -0.69463
C     -4.05731    -3.14430    -2.83048
C     -4.74675    -3.60811    -4.07855
O     -3.92685    -3.86929    -1.85504
O     -3.59930    -1.91250    -2.89002
H     -3.15222    -1.65945    -2.04173
H     -5.74505    -3.95332    -3.82305
H     -4.79231    -2.80855    -4.80864
H     -4.20055    -4.45854    -4.47956
C     -0.27046     2.06232    -0.24160
C     -0.26976     1.00524    -1.29161
O     -0.08401     1.81822     0.94254
O     -0.48734     3.27289    -0.70048
H     -0.16055     6.42440     3.55603
H     -0.12126     0.04082    -0.82692
H     -1.21596     1.01035    -1.82318
H      0.52877     1.20431    -1.99873
C      0.74687    -3.09643    -1.11573
C     -0.22401    -3.87155    -1.94735
O      0.92567    -3.32120     0.07066
O      1.36332    -2.13579    -1.77303
H      1.96336    -1.64249    -1.16413
H     -1.07568    -3.23245    -2.16556
H      0.22531    -4.15913    -2.89255
H     -0.56859    -4.73897    -1.39871
C     -2.38906    -1.95854     0.40224
C     -1.75256    -1.50691     1.67781
O     -2.36414    -1.30065    -0.63020
O     -2.94051    -3.14558     0.49198
H     -3.34956    -3.41155    -0.37323
H     -1.33512    -0.51470     1.55829
H     -2.49331    -1.51839     2.47620
H     -0.97055    -2.21629     1.93590
C     -0.68410     4.65761     2.50931
C     -0.93590     5.66303     3.59569
O     -0.68564     4.97489     1.32711
O     -0.45967     3.43892     2.93961
H     -0.30793     2.80936     2.17920
H     -0.57490     3.92315     0.04491
H     -1.88593     6.15648     3.40717
H     -0.94090     5.17847     4.56486
C      3.38041    -1.27882     0.99293
C      4.49596    -0.65480     1.76149
O      2.93957    -0.80320    -0.05396
O      2.91093    -2.37971     1.52282
H      2.15921    -2.74548     0.98341
H      4.20262     0.34388     2.07445
H      4.75087    -1.27028     2.61670
H      5.35222    -0.53346     1.10213
