 72
-2063.3241690548934
C     -4.10718    -1.18355     4.67873
C     -4.51475    -0.49117     5.94911
O     -4.72726    -1.14893     3.64348
O     -2.96431    -1.86561     4.82677
H     -2.71007    -2.25082     3.96915
H     -5.44272     0.04428     5.78649
H     -4.63928    -1.22383     6.74447
H     -3.73388     0.20088     6.25922
C      0.12275     2.06169    -0.57621
C     -0.48018     2.34296    -1.90887
O     -0.14133     1.10304     0.12587
O      1.02920     2.96663    -0.20834
H      1.34729     2.76561     0.68697
H     -0.72996     3.39917    -1.98644
H      0.24466     2.09904    -2.68164
H     -1.36404     1.73195    -2.04537
C      2.08835     1.46490     2.92823
C      0.99188     0.94849     3.80085
O      2.09414     2.61705     2.50026
O      3.02196     0.59567     2.63789
H      3.74333     1.01620     2.08589
H      1.19046     1.25852     4.82629
H      0.05120     1.38835     3.48461
H      0.95201    -0.13178     3.74454
C     -2.70432    -3.36399     1.63474
C     -4.01699    -3.91359     2.09233
O     -1.86304    -2.94191     2.42208
O     -2.53795    -3.36186     0.33821
H     -1.64872    -2.98716     0.08648
H     -4.73634    -3.09759     2.12689
H     -4.37330    -4.68323     1.41357
H     -3.90690    -4.30355     3.09827
C     -3.38697    -0.01908    -0.25210
C     -4.76792    -0.51886     0.04997
O     -3.03228     0.37603    -1.33829
O     -2.57442    -0.07836     0.80700
H     -1.70189     0.26647     0.54788
H     -5.47989    -0.02102    -0.60544
H     -4.80056    -1.58835    -0.16155
H     -5.01729    -0.35665     1.09384
C      0.64832    -1.94599     0.39198
C      1.91790    -1.33893    -0.09492
O     -0.21600    -2.39536    -0.34394
O      0.53263    -1.93644     1.70386
H     -0.33578    -2.31304     1.97604
H      2.05467    -1.54546    -1.14991
H      1.83368    -0.26606     0.05555
H      2.75823    -1.69620     0.49272
C      2.49369     0.93147    -5.93799
C      3.45351     1.75082    -6.75225
O      1.83404     0.03069    -6.43191
O      2.43691     1.27769    -4.66854
H      1.79267     0.69820    -4.18055
H      4.16625     1.08500    -7.23203
H      2.90043     2.25706    -7.53968
H      3.96552     2.47231    -6.12610
C     -0.16690    -0.94023    -3.94308
C     -1.30176    -1.49844    -3.15548
O      0.70103    -0.24039    -3.43332
O     -0.17292    -1.26021    -5.21685
H      0.58087    -0.81631    -5.68640
H     -2.24487    -1.21558    -3.61099
H     -1.23580    -2.58249    -3.14308
H     -1.25445    -1.12553    -2.14498
C      4.94576     2.88883     0.81305
C      6.04959     3.38869    -0.06635
O      4.84777     1.71213     1.13279
O      4.09996     3.81895     1.20306
H      3.37818     3.42096     1.74280
H      5.95507     4.45653    -0.22291
H      7.00352     3.15206     0.39802
H      6.00850     2.85839    -1.01438
