 40
-1146.2724555458028
C      5.30167    -4.65256    -0.31982
C      5.72150    -6.09459    -0.29365
O      6.00086    -3.74864    -0.70744
O      4.05639    -4.48074     0.14627
H      3.82433    -3.53862     0.09637
H      4.89686    -6.73207     0.00528
H      6.08472    -6.37325    -1.28000
H      6.55187    -6.20482     0.40108
C      3.58615    -0.80086    -0.00115
C      5.06379    -0.79694    -0.18402
O      2.91597    -1.82280     0.09856
O      3.05301     0.40170     0.03991
H      2.07673     0.35485     0.13973
H      5.45148     0.21127    -0.09116
H      5.51584    -1.46561     0.54185
H      5.29899    -1.20874    -1.16221
C     -2.17025     3.11735    -0.21345
C     -2.65262     4.45853    -0.64851
O     -2.86448     2.26906     0.31620
O     -0.87939     2.91937    -0.46177
H     -0.62799     2.02996    -0.15713
H     -1.82107     5.06690    -0.98557
H     -3.38600     4.33187    -1.44071
H     -3.17990     4.93234     0.17482
C     -6.32899     3.17994    -0.05800
C     -7.82347     3.00026    -0.05317
O     -5.77931     4.21707    -0.33653
O     -5.68641     2.05421     0.28114
H     -4.72301     2.21353     0.27136
H     -8.25852     3.71236     0.64492
H     -8.20809     3.23888    -1.04255
H     -8.08942     1.98624     0.22405
C     -0.35302    -0.64757     0.58984
C     -1.81215    -0.64259     0.90099
O      0.27845     0.36569     0.31098
O      0.20150    -1.83813     0.64937
H      1.16322    -1.79891     0.44281
H     -2.16747    -1.65602     1.05022
H     -1.96967    -0.04644     1.79700
H     -2.35288    -0.14466     0.10342
