 48
-1375.5397057326288
C      0.81740    -1.92364     2.58439
C      2.21858    -2.35636     2.91743
O     -0.16646    -2.61267     2.67311
O      0.78081    -0.64830     2.15420
H     -0.14364    -0.38502     2.01286
H      2.19504    -3.33634     3.38323
H      2.81323    -2.39664     2.00695
H      2.68708    -1.63696     3.58626
C      2.76470    -3.66330    -1.72100
C      2.85997    -5.09959    -2.14989
O      1.87149    -2.92897    -2.12557
O      3.70529    -3.27821    -0.89135
H      3.58894    -2.31644    -0.64442
H      2.91399    -5.14125    -3.23489
H      3.72966    -5.56944    -1.70566
H      1.95269    -5.61758    -1.84779
C     -2.97708     3.76919     2.00090
C     -3.27098     5.13820     2.53150
O     -3.65655     3.25261     1.12448
O     -1.93706     3.18564     2.55429
H     -1.80304     2.28424     2.18028
H     -2.58612     5.38757     3.33325
H     -3.18135     5.85601     1.71968
H     -4.29966     5.16923     2.88067
C     -0.84971     1.42666    -2.66702
C     -0.05450     1.26173    -3.92844
O     -0.44859     1.98093    -1.67314
O     -2.06076     0.85051    -2.75949
H     -2.52290     0.94868    -1.90702
H      0.56164     0.37040    -3.81664
H     -0.71141     1.13422    -4.78295
H      0.60079     2.11710    -4.05946
C      2.37828    -0.10433    -0.46591
C      2.21832     1.29209     0.02398
O      3.37032    -0.78093    -0.24469
O      1.35523    -0.54646    -1.17656
H      1.53149    -1.45674    -1.54331
H      1.38793     1.33017     0.72638
H      3.13515     1.61256     0.50836
H      1.96903     1.94373    -0.80795
C     -2.18850     0.33616     0.51002
C     -1.82974    -0.94639    -0.16434
O     -1.67274     0.70735     1.55486
O     -3.08554     1.05727    -0.13029
H     -3.31508     1.89834     0.36786
H     -0.92681    -0.75927    -0.74363
H     -1.61941    -1.70903     0.57863
H     -2.61934    -1.26562    -0.83813
