 48
-1375.5471825982095
C     -1.11098    -1.97831     2.01336
C     -1.88937    -2.25981     3.25443
O     -1.55167    -2.10028     0.88455
O      0.12184    -1.55207     2.25257
H      0.56059    -1.36091     1.40806
H     -2.74927    -1.59476     3.28801
H     -2.27998    -3.27340     3.20387
H     -1.26456    -2.13266     4.13147
C      1.29062    -1.05508    -1.45509
C      0.02322    -1.52681    -2.07659
O      1.47985    -1.04528    -0.24410
O      2.18883    -0.63129    -2.31063
H      3.02178    -0.36963    -1.84098
H     -0.54560    -2.08578    -1.34363
H     -0.54942    -0.65218    -2.38120
H      0.23218    -2.12728    -2.95863
C     -1.25956     1.61608     0.39447
C     -2.48350     1.45741     1.23676
O     -1.29892     1.57877    -0.82739
O     -0.14626     1.76862     1.07181
H      0.60112     1.96873     0.45677
H     -3.26495     2.11724     0.86990
H     -2.84734     0.43785     1.12962
H     -2.26567     1.66047     2.27768
C      1.69183     2.50269    -1.83443
C      2.82706     2.96057    -2.68787
O      1.78147     2.41051    -0.61988
O      0.62014     2.17039    -2.51366
H     -0.12170     1.93987    -1.89463
H      3.46156     3.62962    -2.11589
H      3.40599     2.07885    -2.95998
H      2.46702     3.43861    -3.59332
C      4.46045     0.47775     0.12414
C      5.54976     1.34493     0.67507
O      4.37724     0.18993    -1.05986
O      3.60410     0.07354     1.03720
H      2.85858    -0.40004     0.61306
H      5.15245     2.34963     0.80421
H      5.85815     0.97677     1.64852
H      6.38670     1.37655    -0.01329
C     -5.04160    -1.82397     0.82440
C     -6.46859    -1.90245     0.35518
O     -4.71267    -1.35829     1.88906
O     -4.18520    -2.32813    -0.07180
H     -3.27578    -2.25834     0.27577
H     -7.04063    -2.48603     1.07324
H     -6.88861    -0.89909     0.34427
H     -6.52552    -2.35032    -0.63035
