 32
-917.016383650803
C      1.85204    -0.87183     1.86216
C      0.51935    -1.10283     1.22548
O      2.91166    -0.82818     1.28904
O      1.76758    -0.68378     3.19705
H      2.67019    -0.53840     3.50603
H     -0.16646    -1.59872     1.90219
H      0.09195    -0.14054     0.96359
H      0.65045    -1.66846     0.31395
C     -2.03952     2.03152     1.23297
C     -2.00149     3.08274     2.30064
O     -2.62269     0.96835     1.38043
O     -1.37358     2.35261     0.14203
H     -1.40046     1.61447    -0.51217
H     -1.23002     2.81131     3.01944
H     -1.76298     4.04835     1.86981
H     -2.95245     3.10617     2.82213
C      2.05277    -0.47032    -1.82507
C      3.54650    -0.41972    -1.87762
O      1.39162    -1.48314    -1.85610
O      1.50551     0.74925    -1.73361
H      0.54153     0.64909    -1.72905
H      3.87150     0.49494    -2.36408
H      3.92749    -0.43317    -0.85813
H      3.91661    -1.29607    -2.40049
C     -1.87205    -0.82804    -1.34078
C     -1.72463    -1.96317    -2.29719
O     -1.36855     0.27687    -1.53700
O     -2.58623    -1.09856    -0.27851
H     -2.65004    -0.31038     0.32422
H     -0.66754    -2.21122    -2.37879
H     -2.29499    -2.81969    -1.95697
H     -2.06130    -1.63914    -3.27915
