 64
-1834.0619732197922
C     -5.99651    -0.34985     0.16007
C     -7.46826    -0.22422     0.42696
O     -5.53565    -0.24671    -0.96828
O     -5.26833    -0.56031     1.23215
H     -4.30749    -0.67680     0.99817
H     -7.99163    -1.00877    -0.11410
H     -7.66985    -0.29689     1.48938
H     -7.81468     0.72847     0.03436
C      2.02632     3.30632     0.90074
C      1.32848     4.44186     1.57340
O      1.54775     2.71916    -0.06921
O      3.18780     3.00262     1.41434
H      3.60658     2.24663     0.92552
H      1.13034     5.21378     0.83286
H      0.36111     4.11037     1.94277
H      1.93523     4.83532     2.38217
C      1.69465    -2.19248    -3.45321
C      1.22816    -2.87567    -4.70038
O      2.02620    -2.77782    -2.44331
O      1.70263    -0.86776    -3.55385
H      2.04796    -0.47031    -2.73199
H      0.23832    -3.29064    -4.52219
H      1.18734    -2.17382    -5.52531
H      1.89237    -3.70459    -4.92753
C      3.81638     0.39023    -0.84441
C      4.51873    -0.74422    -1.50561
O      4.28702     1.03506     0.06656
O      2.60472     0.63333    -1.34240
H      2.17953     1.39832    -0.87839
H      3.97773    -1.65802    -1.27378
H      4.51014    -0.60990    -2.58384
H      5.53773    -0.80779    -1.14084
C     -2.28130    -0.84028    -0.58342
C     -0.85330    -1.17369    -0.85897
O     -2.75130    -0.81548     0.54322
O     -2.98704    -0.56368    -1.65664
H     -3.94403    -0.45204    -1.42067
H     -0.45519    -1.79083    -0.06067
H     -0.75031    -1.66403    -1.82021
H     -0.30161    -0.23982    -0.88879
C      0.32893    -0.35054     2.66316
C     -0.52667     0.65829     3.37127
O      0.20190    -1.54592     2.76321
O      1.25773     0.22662     1.88412
H      1.77443    -0.48984     1.46728
H     -1.05410     1.27005     2.64260
H     -1.24370     0.14387     4.00194
H      0.09614     1.32306     3.96820
C     -2.14873     2.97395     0.33654
C     -3.57010     2.71460    -0.05653
O     -1.80813     3.59459     1.31332
O     -1.27650     2.40863    -0.51498
H     -0.37565     2.63586    -0.23103
H     -3.66786     2.65168    -1.13477
H     -3.87854     1.76012     0.36209
H     -4.21414     3.48603     0.35162
C      2.37077    -3.13620     1.06643
C      2.48600    -3.72441     2.43477
O      2.52266    -1.95778     0.80158
O      2.08931    -4.04078     0.13707
H      2.04837    -3.60568    -0.73154
H      1.68235    -3.32682     3.05036
H      2.42574    -4.80540     2.38041
H      3.42903    -3.41111     2.87866
