 64
-1834.0625077383609
C     -4.57130    -1.93917    -0.00800
C     -6.02344    -2.22219    -0.25994
O     -4.18000    -1.31008     0.97235
O     -3.76957    -2.40193    -0.92737
H     -2.81409    -2.28337    -0.67246
H     -6.16502    -3.28125    -0.45723
H     -6.61282    -1.91084     0.59377
H     -6.33941    -1.67644    -1.14702
C      2.85014     2.06776     0.64674
C      2.17387     3.38508     0.51386
O      2.88935     1.43175     1.69831
O      3.41231     1.62250    -0.45485
H      3.72465     0.69460    -0.33442
H      2.82526     4.08735    -0.00011
H      1.27791     3.25537    -0.09514
H      1.88737     3.74761     1.49207
C      1.78714    -2.61363    -2.13646
C      0.61833    -2.83041    -3.04778
O      2.10902    -3.36147    -1.24432
O      2.44384    -1.48183    -2.41232
H      3.12483    -1.34866    -1.73353
H     -0.18852    -3.29374    -2.48824
H      0.29480    -1.88577    -3.46950
H      0.92347    -3.50482    -3.84888
C      4.08264    -1.57938     0.91801
C      4.45830    -3.02199     0.95665
O      4.04093    -0.93218    -0.12506
O      3.81850    -1.04303     2.08255
H      3.55620    -0.09598     1.98007
H      3.79691    -3.57632     0.29496
H      5.47141    -3.13116     0.57415
H      4.39542    -3.40212     1.97031
C     -0.81110    -1.63076     0.80264
C      0.65994    -1.45704     0.97755
O     -1.30664    -2.28127    -0.09875
O     -1.54834    -1.03612     1.72614
H     -2.49974    -1.16399     1.51526
H      0.98015    -0.55664     0.45807
H      0.89504    -1.35533     2.02871
H      1.16827    -2.30711     0.54605
C     -2.91286     1.80516    -0.26966
C     -2.59960     3.24937    -0.43495
O     -2.43044     0.89288    -0.91232
O     -3.81600     1.57561     0.68558
H     -3.95902     0.61729     0.74583
H     -3.52648     3.81112    -0.54343
H     -2.09392     3.59335     0.46435
H     -1.94814     3.38822    -1.28782
C     -0.55171     1.84596     2.92732
C     -1.74504     1.49258     3.75878
O     -0.56905     2.54624     1.94243
O      0.57203     1.29005     3.39786
H      1.30845     1.56192     2.82772
H     -2.63055     1.91425     3.30225
H     -1.83524     0.41171     3.82089
H     -1.61794     1.88156     4.76875
C      0.41106     1.67728    -2.67266
C      1.55419     1.53725    -3.63074
O      0.27563     2.61161    -1.91781
O     -0.43782     0.64832    -2.74414
H     -1.16184     0.76853    -2.09643
H      1.31619     2.08185    -4.54482
H      2.44114     1.97348    -3.18178
H      1.72190     0.49310    -3.86365
