 32
-917.0161257074664
C      1.58231    -1.97867    -3.27268
C      2.72479    -2.90386    -3.58734
O      0.86000    -1.46853    -4.09220
O      1.46354    -1.77908    -1.95044
H      0.70093    -1.19993    -1.78193
H      2.82044    -3.00571    -4.66212
H      3.64587    -2.51075    -3.16166
H      2.54263    -3.87759    -3.13622
C     -1.10376     0.84185    -1.69644
C     -0.87763     0.99957    -3.16463
O     -0.76823    -0.16887    -1.08149
O     -1.67854     1.86547    -1.12015
H     -1.83467     1.69767    -0.14590
H     -1.30635     0.14748    -3.68446
H     -1.30954     1.93100    -3.51288
H      0.19079     0.96901    -3.36232
C      1.45401     0.74442     2.89658
C      1.33767     1.27873     1.50092
O      0.56527     0.72039     3.71108
O      2.68262     0.26396     3.17069
H      2.65066    -0.07081     4.07525
H      0.95760     0.49070     0.85323
H      0.60880     2.08186     1.49664
H      2.29180     1.61641     1.10974
C     -2.11911     0.40283     2.00795
C     -2.62326     0.23197     3.39778
O     -2.08109     1.47596     1.42466
O     -1.70095    -0.72266     1.45654
H     -1.38961    -0.55229     0.54250
H     -1.76343     0.23018     4.06559
H     -3.27439     1.05978     3.65699
H     -3.13655    -0.72037     3.48982
