 48
-1375.5347339198318
C     -0.19106    -0.26161     2.80065
C     -1.41895     0.45791     3.26119
O     -0.00963    -1.44870     2.94421
O      0.68468     0.54037     2.18334
H      1.42415     0.00511     1.85617
H     -1.26480     1.53248     3.25987
H     -2.23001     0.22290     2.57521
H     -1.69593     0.10455     4.25159
C      3.22845    -0.05008    -1.86098
C      3.85750     0.54394    -3.08260
O      2.34034    -0.88893    -1.91817
O      3.69363     0.42529    -0.72565
H      3.32458    -0.08941     0.03448
H      4.02948    -0.23471    -3.82088
H      3.16633     1.26394    -3.51343
H      4.78552     1.04327    -2.82607
C     -0.15535     2.64410    -2.03065
C      0.39091     1.91311    -0.84551
O     -1.24611     3.16199    -2.12483
O      0.71526     2.70007    -3.05859
H      0.27385     3.18118    -3.77043
H      1.38941     2.27434    -0.61438
H     -0.26555     2.05618     0.00309
H      0.45951     0.84961    -1.06028
C     -3.68149     1.67168    -0.05229
C     -4.94653     1.11646     0.51649
O     -2.57248     1.46402     0.40590
O     -3.87611     2.42946    -1.12339
H     -3.01139     2.73783    -1.45343
H     -5.79221     1.42162    -0.08889
H     -4.86625     0.03299     0.56076
H     -5.05936     1.47441     1.53811
C      2.40380    -2.28153     1.07018
C      2.42403    -3.30857     2.15148
O      2.79526    -1.12679     1.24090
O      1.90545    -2.68023    -0.07066
H      2.00092    -1.98048    -0.77507
H      2.34348    -4.30534     1.73306
H      3.32784    -3.19784     2.74332
H      1.56831    -3.10946     2.79777
C     -2.02940    -1.80269     0.20713
C     -1.42793    -3.17117     0.10635
O     -3.13390    -1.56455     0.63029
O     -1.18348    -0.84752    -0.21568
H     -1.61750     0.01919    -0.08210
H     -2.22190    -3.90832     0.01927
H     -0.73882    -3.22956    -0.72896
H     -0.86797    -3.36129     1.02240
