 32
-917.0276721537798
C      0.38373    -1.21899     1.61113
C     -0.52196    -1.69109     2.70187
O      0.68714    -0.05600     1.44344
O      0.79662    -2.19827     0.81998
H      1.40725    -1.84355     0.13606
H     -1.54973    -1.57231     2.36106
H     -0.34392    -2.73660     2.92963
H     -0.38492    -1.07086     3.58209
C     -1.95848     2.13821     1.44569
C     -2.68357     3.36730     1.91163
O     -2.49711     1.05478     1.29967
O     -0.68020     2.35539     1.20619
H     -0.23521     1.51783     0.96713
H     -3.71768     3.12306     2.12275
H     -2.20012     3.76138     2.80269
H     -2.62976     4.13398     1.14160
C      2.88998    -0.16703    -1.41216
C      4.28607     0.06083    -1.91200
O      2.45027    -1.27475    -1.15578
O      2.19743     0.94500    -1.26802
H      1.28609     0.73723    -0.98047
H      4.36714     1.04051    -2.36917
H      4.97242    -0.00148    -1.06949
H      4.54977    -0.72289    -2.61552
C     -1.16899    -0.72082    -1.35576
C     -0.95923    -1.81647    -2.35001
O     -0.50704     0.29611    -1.32346
O     -2.13205    -0.98686    -0.48615
H     -2.25318    -0.22732     0.12614
H     -0.66348    -1.38920    -3.30315
H     -0.14263    -2.44260    -1.99297
H     -1.85205    -2.42365    -2.45451
