 48
-1375.5415630422506
C     -0.02249     0.20715     3.83555
C     -0.65451     1.23632     4.72257
O     -0.42448    -0.91784     3.67493
O      1.06651     0.68498     3.21162
H      1.34989     0.01031     2.58174
H     -1.38003     0.75710     5.37001
H      0.10722     1.74831     5.30539
H     -1.15536     1.97215     4.09520
C      0.79368    -1.86320     0.22626
C     -0.52641    -2.30454     0.75288
O      1.49880    -1.00028     0.75733
O      1.16085    -2.46595    -0.87670
H      2.10601    -2.26279    -1.11699
H     -0.55111    -3.39119     0.79550
H     -0.68950    -1.88097     1.73684
H     -1.30975    -1.97794     0.07112
C     -0.53399     2.17046     0.28953
C     -0.76625     3.54563    -0.25142
O     -1.20830     1.65012     1.14128
O      0.49553     1.54081    -0.30369
H      0.68007     0.73539     0.20024
H      0.17318     4.03646    -0.49019
H     -1.35864     3.46629    -1.16222
H     -1.32900     4.12337     0.47436
C     -4.04843     0.68692    -0.57665
C     -4.93565     0.99620     0.58807
O     -3.77164     1.50922    -1.43855
O     -3.58346    -0.54425    -0.57272
H     -2.91980    -0.65851    -1.30126
H     -5.57432     0.14597     0.80812
H     -4.30108     1.17834     1.45390
H     -5.52201     1.88371     0.37977
C      4.56085    -1.60142    -0.78335
C      6.02157    -1.67431    -1.09558
O      3.69755    -2.01219    -1.54086
O      4.28864    -1.05525     0.38895
H      3.32081    -1.02109     0.52874
H      6.30998    -2.72020    -1.16762
H      6.19839    -1.22167    -2.06722
H      6.60058    -1.17648    -0.32696
C     -1.15060     0.19862    -2.94997
C      0.15558     0.05515    -3.66749
O     -1.71053    -0.73493    -2.39780
O     -1.62738     1.42245    -2.95785
H     -2.47458     1.45804    -2.43484
H      0.85261     0.79399    -3.28104
H      0.53737    -0.94768    -3.52280
H      0.00772     0.25210    -4.72874
