 56
-1604.8059517815814
C      2.25010     2.83544    -1.37995
C      0.94621     2.10083    -1.42833
O      2.87784     3.10763    -0.38550
O      2.68004     3.20495    -2.60495
H      3.51624     3.66694    -2.46988
H      0.87308     1.42224    -0.58677
H      0.14806     2.83531    -1.35486
H      0.83696     1.56312    -2.36059
C      2.51568    -0.65602     1.44217
C      3.16226     0.64870     1.76693
O      1.37931    -0.74178     0.99458
O      3.26846    -1.71135     1.67773
H      2.75253    -2.53575     1.49336
H      4.12967     0.48443     2.23019
H      3.27025     1.23009     0.85743
H      2.50520     1.21044     2.42586
C     -0.51042     3.53722     1.39736
C      0.13338     4.88887     1.41141
O     -0.05418     2.59486     2.02814
O     -1.58844     3.45094     0.65037
H     -3.31257    -1.43398     0.84584
H      1.14267     4.79610     1.01755
H     -0.44102     5.59401     0.82098
H      0.21119     5.23451     2.44028
C      0.54169    -3.84490     1.29228
C     -0.27147    -5.09300     1.14131
O      1.74926    -3.81701     1.12499
O     -0.17453    -2.78639     1.62293
H      0.35805    -1.96799     1.48697
H     -1.02599    -5.13676     1.92161
H     -0.77900    -5.06014     0.17839
H      0.37889    -5.96038     1.17799
C     -2.81138    -0.21127    -2.05983
C     -4.18178     0.38348    -2.07568
O     -2.57488    -1.33823    -1.65277
O     -1.88912     0.61092    -2.50948
H     -1.00796     0.16506    -2.48633
H     -4.92450    -0.39277    -1.92877
H     -4.24417     1.11246    -1.27157
H     -4.33998     0.90351    -3.01629
C     -2.32514     0.21628     1.71337
C     -3.02621    -1.09599     1.83735
O     -2.64628     1.06010     0.88587
O     -1.35146     0.37728     2.57352
H     -0.84762     1.21135     2.38991
H     -1.98976     2.54550     0.72774
H     -2.37436    -1.81341     2.32065
H     -3.92468    -0.94613     2.43558
C      0.59869    -1.93635    -2.11772
C      1.95323    -2.56745    -2.17105
O      0.37674    -0.80126    -2.50073
O     -0.33240    -2.71724    -1.61341
H     -1.18905    -2.21931    -1.58454
H      2.60341    -1.98791    -2.81669
H      2.36489    -2.58501    -1.16432
H      1.87939    -3.59187    -2.52387
