 72
-2063.3251682683604
C      2.69951     1.53028    -1.64224
C      2.51662     2.50834    -2.76218
O      2.42633     0.34387    -1.74642
O      3.17002     2.07173    -0.54110
H      3.34548     1.36701     0.13434
H      2.08471     1.99932    -3.61444
H      1.86260     3.31008    -2.43294
H      3.47925     2.94187    -3.02559
C     -3.77737     3.79033     0.51879
C     -4.66889     3.63751     1.70697
O     -2.84446     4.57074     0.45544
O     -4.08640     2.96489    -0.47378
H     -3.42423     3.06127    -1.17747
H     -4.78643     4.59484     2.20582
H     -5.62764     3.22833     1.40687
H     -4.18491     2.94603     2.39517
C     -0.84674     0.14150    -3.38668
C     -0.41845    -1.28852    -3.43725
O     -0.44453     0.98168    -4.17651
O     -1.69020     0.41444    -2.41055
H     -1.88276     1.38005    -2.38969
H     -0.96884    -1.86262    -2.70134
H     -0.58403    -1.67540    -4.44101
H      0.64710    -1.33746    -3.22247
C      0.74261    -4.06506     0.24181
C      2.02474    -4.79168     0.01054
O      0.35209    -3.71961     1.35459
O      0.06332    -3.81534    -0.85021
H     -0.78284    -3.33448    -0.63782
H      2.32212    -5.31020     0.91375
H      1.92179    -5.47476    -0.82866
H      2.78873    -4.05515    -0.23442
C     -1.45792     3.89081    -3.08755
C     -1.56967     5.35199    -2.80313
O     -2.06071     3.03800    -2.44177
O     -0.66031     3.59082    -4.07716
H     -0.59643     2.60077    -4.17520
H     -0.57554     5.79198    -2.78249
H     -2.12618     5.82538    -3.61073
H     -2.07559     5.50077    -1.85676
C     -2.09090    -1.52475     0.52008
C     -3.03321    -0.37303     0.47119
O     -2.09071    -2.43964    -0.28957
O     -1.23343    -1.47110     1.52751
H     -0.64371    -2.25383     1.51628
H     -2.46153     0.54411     0.38887
H     -3.69726    -0.47236    -0.37755
H     -3.58996    -0.31378     1.40210
C      3.29291    -1.05273     1.10752
C      3.48160    -2.01359     2.23106
O      3.58143     0.12887     1.19091
O      2.78203    -1.59249     0.01341
H      2.64347    -0.89280    -0.67737
H      4.13960    -2.82106     1.92481
H      3.89722    -1.50060     3.09042
H      2.53094    -2.46632     2.49133
C     -0.72398     2.44764     1.92080
C      0.49701     1.70663     2.38727
O     -1.85409     2.04262     2.07042
O     -0.42413     3.60285     1.31939
H     -1.25328     4.01591     1.00065
H      0.21058     0.72932     2.75816
H      1.20317     1.60647     1.56879
H      0.97893     2.27422     3.18303
C      2.20041    -5.27357     3.98715
C      2.53915    -5.86428     5.32583
O      3.02276    -4.97543     3.15401
O      0.88344    -5.10748     3.81509
H      0.72571    -4.69468     2.94857
H      1.64182    -6.04219     5.90706
H      3.08435    -6.79308     5.17291
H      3.20386    -5.18087     5.84990
