 32
-917.0148821479037
C      2.17044    -0.15113    -1.95951
C      3.58004    -0.65687    -1.91634
O      1.79862     0.81352    -2.58172
O      1.34313    -0.90259    -1.21085
H      0.44662    -0.54296    -1.31004
H      4.16866    -0.12767    -2.65772
H      3.99553    -0.49144    -0.92528
H      3.59751    -1.72722    -2.11034
C     -1.74434     1.12080    -1.85235
C     -1.25879     1.56653    -3.18804
O     -1.35683     0.08169    -1.31646
O     -2.61895     1.91377    -1.29089
H     -2.88497     1.57648    -0.39113
H     -0.19406     1.78065    -3.11734
H     -1.36437     0.74404    -3.89038
H     -1.81192     2.43875    -3.51545
C      2.63019    -0.76009     2.14690
C      1.47517    -1.67613     1.87646
O      3.76237    -0.90981     1.76643
O      2.26507     0.29679     2.91126
H      3.06252     0.82474     3.04036
H      0.56367    -1.10061     1.75085
H      1.67631    -2.25671     0.98373
H      1.34952    -2.34622     2.72726
C     -2.89416     0.00927     1.65223
C     -3.34274    -0.40376     3.02262
O     -3.30797     1.02079     1.10887
O     -2.02761    -0.81543     1.09578
H     -1.78026    -0.49670     0.19300
H     -4.38348    -0.71456     2.96622
H     -2.73318    -1.21961     3.39423
H     -3.29084     0.45291     3.68851
