 72
-2063.3211622271674
C      6.86206     2.08890    -1.54735
C      8.10916     2.91943    -1.49998
O      6.73698     1.14266    -2.30870
O      5.92677     2.47642    -0.70044
H      5.12648     1.90689    -0.78314
H      8.01538     3.70204    -0.75658
H      8.95315     2.27396    -1.27108
H      8.28337     3.34732    -2.48390
C     -1.50345     0.19735    -2.92004
C     -2.68150    -0.26424    -3.72884
O     -0.67033    -0.53568    -2.44641
O     -1.48636     1.52831    -2.75580
H     -0.72212     1.76545    -2.21025
H     -3.50660    -0.48057    -3.05073
H     -2.99029     0.50782    -4.42805
H     -2.41932    -1.18034    -4.25054
C      1.21414     3.59716    -0.98574
C      0.51581     4.91358    -0.92459
O      0.64626     2.51261    -1.00133
O      2.53213     3.69600    -1.00257
H      2.92271     2.80692    -1.03817
H      0.08837     5.01658     0.07157
H      1.21437     5.71937    -1.11864
H     -0.30480     4.92604    -1.63694
C     -6.28586    -4.05339    -0.29359
C     -7.49921    -4.91629    -0.48997
O     -5.39439    -4.35857     0.48620
O     -6.27368    -2.96349    -1.02622
H     -5.44448    -2.44086    -0.86488
H     -7.18254    -5.88635    -0.86599
H     -7.97748    -5.08011     0.47240
H     -8.18787    -4.44890    -1.18440
C      1.32062     0.21133     2.47909
C      2.19675     1.40492     2.27862
O      1.39424    -0.77984     1.76949
O      0.45440     0.33149     3.45878
H     -0.10806    -0.48664     3.51797
H      3.04600     1.13715     1.66091
H      1.60646     2.15976     1.76303
H      2.51511     1.81979     3.23061
C     -3.14205    -1.91789     0.15827
C     -1.91170    -1.09662     0.29840
O     -4.05284    -1.61634    -0.59827
O     -3.16730    -2.99660     0.91493
H     -4.00295    -3.51578     0.76858
H     -1.04141    -1.69559     0.05580
H     -1.96989    -0.25970    -0.37417
H     -1.79601    -0.71984     1.30809
C      3.63658    -0.02350    -1.70943
C      2.41404    -0.87012    -1.68159
O      3.72990     1.01375    -1.04699
O      4.60472    -0.45363    -2.47617
H      5.40119     0.14301    -2.42606
H      2.14269    -1.05946    -0.64715
H      1.58438    -0.33357    -2.13298
H      2.59043    -1.79538    -2.21739
C     -1.33727     2.70107     1.87789
C     -2.33132     2.32281     2.93138
O     -0.73930     3.74992     1.84265
O     -1.16277     1.72736     0.97333
H     -0.53612     2.03675     0.29583
H     -1.78578     2.03128     3.82663
H     -2.94395     3.18703     3.17317
H     -2.94414     1.48881     2.60562
C     -0.71258    -2.94840     3.06035
C     -1.42335    -4.20926     3.43540
O     -0.96405    -1.86245     3.56158
O      0.20302    -3.11788     2.12945
H      0.67677    -2.26886     1.94956
H     -1.95785    -4.06842     4.36871
H     -2.13050    -4.44948     2.64525
H     -0.71207    -5.02633     3.51579
