 64
-1834.0620999313787
C      1.18976     0.97768    -2.27459
C     -0.02804     1.39362    -3.04192
O      1.29094    -0.10517    -1.72297
O      2.13086     1.90144    -2.23477
H      2.86805     1.59388    -1.66008
H     -0.67638     0.53675    -3.18321
H     -0.55466     2.15756    -2.47287
H      0.26311     1.82053    -4.00020
C      3.20478     3.48449     1.32565
C      4.17734     4.47712     0.77700
O      3.50044     2.61664     2.12674
O      1.98262     3.62053     0.83572
H      1.39694     2.94521     1.21415
H      4.89311     4.75403     1.54514
H      4.71755     3.99826    -0.03838
H      3.65184     5.34514     0.39602
C     -4.16997    -2.11800    -0.09374
C     -4.71010    -3.50786    -0.16663
O     -4.06564    -1.36231    -1.04466
O     -3.78322    -1.76282     1.12697
H     -3.46498    -0.84754     1.10745
H     -5.63187    -3.50761    -0.74344
H     -3.98315    -4.12039    -0.70025
H     -4.87482    -3.90202     0.82945
C      4.04487     0.06195     0.01084
C      4.13608    -1.29686    -0.59154
O      4.13772     1.09921    -0.62889
O      3.84480     0.05482     1.32007
H      3.78541     0.97711     1.64708
H      3.38486    -1.37799    -1.37212
H      5.11934    -1.41773    -1.04367
H      3.95952    -2.05623     0.15906
C      0.31644    -2.46092     0.43488
C     -0.47269    -3.29503     1.40350
O      1.40318    -2.74729     0.00474
O     -0.33332    -1.33931     0.07931
H      0.21777    -0.89789    -0.59772
H      0.16147    -4.07339     1.82037
H     -0.87405    -2.67407     2.19996
H     -1.30676    -3.75949     0.87888
C      0.05136     0.95415     2.83297
C      1.20142     0.63049     3.71761
O      0.10466     1.77951     1.92658
O     -1.04099     0.27326     3.09913
H     -1.76093     0.51277     2.47739
H      1.89917     1.45833     3.71511
H      0.85615     0.39624     4.72082
H      1.70811    -0.24375     3.31192
C     -2.93204     1.78682     0.35697
C     -4.05150     2.06876    -0.58817
O     -3.04072     1.02271     1.30843
O     -1.80930     2.41853     0.07782
H     -1.11567     2.19176     0.73514
H     -4.31252     1.14214    -1.09432
H     -4.91958     2.39468    -0.02058
H     -3.75952     2.82551    -1.30777
C     -1.54539    -2.89841    -2.62343
C     -0.25475    -3.15561    -3.34206
O     -2.11210    -3.71676    -1.94017
O     -1.99130    -1.64954    -2.80602
H     -2.76013    -1.49844    -2.22075
H      0.55245    -2.68069    -2.78413
H     -0.06990    -4.22372    -3.38990
H     -0.27596    -2.72629    -4.34114
