 40
-1146.2820047044106
C      1.06266    -2.34690    -0.58948
C      0.12638    -3.44116    -0.99410
O      1.52049    -2.24160     0.53730
O      1.31976    -1.48233    -1.55402
H      2.02807    -0.85681    -1.27209
H      0.20411    -4.26907    -0.29734
H     -0.88680    -3.04246    -0.96585
H      0.34100    -3.76144    -2.00957
C      4.06965    -0.08749     0.22210
C      5.37108     0.60402     0.44494
O      3.37666     0.09879    -0.77813
O      3.72192    -0.91332     1.17353
H      2.87217    -1.38687     0.95329
H      5.97725     0.51771    -0.45339
H      5.16824     1.65972     0.61168
H      5.87641     0.17434     1.30156
C      2.47913     3.39112    -0.22145
C      1.82153     4.74181    -0.29509
O      3.36497     3.09786     0.54335
O      1.95156     2.53376    -1.10723
H      2.43541     1.69266    -1.04169
H      2.28873     5.41129     0.41777
H      1.90697     5.14230    -1.30321
H      0.76110     4.64314    -0.06909
C     -5.66449    -1.10246     0.39494
C     -7.07342    -1.61675     0.33490
O     -5.37194    -0.09280     1.01809
O     -4.79776    -1.82962    -0.27403
H     -3.88270    -1.44507    -0.20705
H     -7.11919    -2.52720    -0.25084
H     -7.42634    -1.79479     1.34748
H     -7.70936    -0.85049    -0.10160
C     -2.07087     0.23173     0.47048
C     -0.67312     0.76395     0.45076
O     -2.36566    -0.81328    -0.09672
O     -2.93020     0.96725     1.12990
H     -3.84131     0.56865     1.09838
H     -0.32723     0.75053    -0.57667
H     -0.63076     1.76815     0.85531
H     -0.03531     0.09999     1.02865
