 80
-2292.5892812041943
C      2.44353     2.53671     1.56392
C      3.03808     3.88059     1.82896
O      2.75376     1.53194     2.17720
O      1.55283     2.54316     0.59470
H      1.24275     1.64162     0.36443
H      3.08559     4.05235     2.90172
H      4.05438     3.88574     1.43878
H      2.45225     4.64821     1.33648
C     -2.96007    -0.20413     4.80566
C     -3.31577    -0.76426     6.15076
O     -1.97211     0.48469     4.60805
O     -3.81267    -0.53663     3.85458
H     -3.54732    -0.12363     3.00255
H     -2.55274    -0.50060     6.87317
H     -4.27952    -0.36957     6.46508
H     -3.41001    -1.84530     6.07973
C      1.14543    -3.37065    -1.37406
C      2.47523    -2.73780    -1.58811
O      0.18878    -3.17208    -2.11007
O      1.08524    -4.13486    -0.30495
H      0.17509    -4.50553    -0.19513
H      3.25262    -3.30228    -1.08737
H      2.67611    -2.63526    -2.64869
H      2.43670    -1.73194    -1.17742
C      2.90533     4.21685    -2.49480
C      3.28034     5.55774    -3.06028
O      3.64258     3.24641    -2.56487
O      1.72438     4.18877    -1.92073
H      1.44725     3.26120    -1.71634
H      2.47828     6.27130    -2.91091
H      4.19026     5.90589    -2.57549
H      3.49904     5.44684    -4.11961
C     -2.38608    -4.55922    -0.57738
C     -3.78767    -4.93327    -0.21023
O     -1.41298    -4.96508     0.03322
O     -2.30909    -3.74680    -1.61251
H     -1.36197    -3.51286    -1.81676
H     -4.32685    -4.03811     0.08787
H     -4.29210    -5.35699    -1.07504
H     -3.77246    -5.64918     0.60379
C     -4.06403    -0.95127    -1.32710
C     -4.80496    -1.81867    -2.30062
O     -3.43715     0.03478    -1.62443
O     -4.17084    -1.39744    -0.06546
H     -3.69407    -0.78394     0.51773
H     -5.59592    -2.35334    -1.78586
H     -5.20777    -1.21196    -3.10682
H     -4.11358    -2.54273    -2.72458
C      0.62944     0.85007    -2.64558
C     -0.70394     0.36115    -3.11324
O      0.79400     1.73010    -1.81746
O      1.63347     0.23050    -3.23258
H      2.48054     0.46201    -2.80121
H     -1.49121     1.01570    -2.76635
H     -0.70932     0.29141    -4.19773
H     -0.88649    -0.63213    -2.71372
C     -2.09522     1.44453     1.42735
C     -1.81014     2.10320     0.12414
O     -2.98241     0.60729     1.57464
O     -1.32025     1.81889     2.41622
H     -1.54040     1.33725     3.25285
H     -1.39114     3.09049     0.28735
H     -1.07204     1.50750    -0.40778
H     -2.71757     2.12960    -0.46925
C      0.40517    -0.72066     1.51881
C     -0.68336    -1.72838     1.71828
O      0.58372    -0.14550     0.46018
O      1.13994    -0.51231     2.58470
H      1.77490     0.23052     2.42085
H     -1.23058    -1.82959     0.78774
H     -0.26602    -2.69078     2.00438
H     -1.35146    -1.40048     2.50705
C      4.55462     0.55082    -0.81076
C      5.22315    -0.30412     0.22461
O      3.90074     0.09924    -1.72916
O      4.72740     1.84789    -0.62154
H      4.30611     2.34534    -1.36658
H      4.93325     0.02782     1.21768
H      4.93068    -1.33631     0.07468
H      6.30477    -0.21325     0.13385
