 72
-2063.323977407294
C      0.35659    -2.47973    -1.54173
C      1.78907    -2.89067    -1.58240
O     -0.43252    -2.89384    -0.69653
O      0.01009    -1.65327    -2.49840
H     -0.95576    -1.43973    -2.44353
H      1.85547    -3.82968    -2.13295
H      2.36973    -2.12864    -2.09080
H      2.14311    -3.04238    -0.57020
C      4.46241     0.07743    -0.38716
C      3.91506     0.04973     0.99504
O      3.75879     0.27535    -1.38068
O      5.74617    -0.14029    -0.46738
H      6.05496    -0.13941    -1.41456
H      4.13567    -0.90670     1.45350
H      4.37724     0.82897     1.59423
H      2.84391     0.17970     0.97242
C     -6.22878     2.38266     0.64005
C     -7.34075     3.24269     0.11171
O     -6.45024     1.31388     1.19127
O     -5.02348     2.87010     0.44651
H     -4.32612     2.26551     0.82534
H     -7.91710     2.66664    -0.60805
H     -8.00735     3.49840     0.93148
H     -6.94308     4.13938    -0.34883
C     -3.29395    -1.33284    -1.30192
C     -4.71093    -0.86110    -1.21688
O     -2.57819    -1.10913    -2.26514
O     -2.88537    -1.98668    -0.23365
H     -1.97469    -2.34439    -0.38040
H     -5.29387    -1.52186    -0.58682
H     -4.71727     0.12670    -0.76312
H     -5.14246    -0.78096    -2.20822
C     -3.42643     0.27639     2.15048
C     -2.33146    -0.47072     2.83390
O     -3.23151     1.23803     1.41878
O     -4.62541    -0.19867     2.39591
H     -5.32212     0.36658     1.97657
H     -2.42894    -1.53048     2.62816
H     -1.36822    -0.11903     2.49163
H     -2.41877    -0.32273     3.90896
C      1.25849    -2.49157     2.44423
C      1.55047    -2.48185     3.91355
O      2.08362    -2.32126     1.57590
O     -0.03522    -2.70690     2.16903
H     -0.13680    -2.74311     1.20533
H      1.30375    -1.49998     4.30994
H      0.95262    -3.23199     4.42591
H      2.61083    -2.66083     4.06271
C      5.93046     0.25122    -3.94822
C      6.51987     0.35115    -5.32312
O      6.58092    -0.13386    -2.98877
O      4.66435     0.61216    -3.87954
H      4.31716     0.51287    -2.96157
H      6.87118    -0.63148    -5.62711
H      5.78215     0.72527    -6.02279
H      7.38458     1.00868    -5.28913
C      0.25993     1.34979    -1.07744
C     -0.96810     2.05770    -1.55319
O      0.26877     0.55751    -0.15356
O      1.34190     1.64641    -1.77386
H      2.10466     1.11212    -1.48821
H     -0.70615     2.95187    -2.11364
H     -1.52126     1.37807    -2.19900
H     -1.59908     2.30680    -0.70517
C      0.89370     1.72126     3.20290
C      0.89855     2.85103     4.20006
O      1.28288     0.60429     3.44508
O      0.39937     2.10025     2.02049
H      0.43006     1.35936     1.37912
H     -0.10790     3.25253     4.30942
H      1.26034     2.49073     5.15684
H      1.53969     3.65616     3.84435
