 40
-1146.2797887951192
C      2.04164    -3.17605    -0.84996
C      2.54910    -4.40619    -1.53784
O      0.89524    -3.08225    -0.43240
O      2.93035    -2.21323    -0.73795
H      2.53855    -1.43389    -0.28315
H      2.45857    -5.25287    -0.86136
H      1.92365    -4.61346    -2.40275
H      3.58117    -4.27353    -1.84003
C      0.74641    -0.09967     1.08667
C      0.21400     1.08557     1.80682
O      1.83360    -0.09070     0.51883
O     -0.02795    -1.15973     1.08387
H      0.34794    -1.88688     0.51191
H     -0.48616     0.78492     2.57864
H      1.04213     1.65313     2.22475
H     -0.30422     1.70566     1.07440
C      2.03553     3.23340    -0.80333
C      2.64240     4.55661    -1.15883
O      0.95942     2.84683    -1.21345
O      2.79153     2.52554     0.02380
H      2.36757     1.66455     0.20617
H      3.57625     4.39602    -1.69359
H      1.95238     5.11766    -1.77688
H      2.87308     5.10985    -0.25138
C     -3.60063    -0.19600     2.10333
C     -4.82546     0.44873     1.52823
O     -3.04675     0.13438     3.12023
O     -3.14749    -1.21153     1.33643
H     -2.29130    -1.46445     1.70219
H     -5.49286    -0.29707     1.10176
H     -5.32669     1.01573     2.30534
H     -4.51789     1.12848     0.73501
C     -1.57576     0.32318    -1.29204
C     -2.18635    -0.97411    -1.73539
O     -2.06704     1.08697    -0.49726
O     -0.38100     0.51983    -1.87306
H     -0.01747     1.39380    -1.62761
H     -1.47581    -1.78005    -1.56477
H     -3.09414    -1.15857    -1.17506
H     -2.40497    -0.93768    -2.80310
