 32
-917.015799336933
C     -0.32605    -2.66122     2.15199
C     -0.22724    -2.39906     0.67917
O     -1.21247    -2.28661     2.87715
O      0.71732    -3.37956     2.61159
H      0.57853    -3.49473     3.55992
H      0.05114    -3.29811     0.13517
H     -1.17871    -2.02290     0.32401
H      0.53958    -1.64851     0.49769
C     -2.29986     0.51290     1.77097
C     -2.90217     0.46849     3.13089
O     -2.85581     0.10374     0.76388
O     -1.08372     1.02926     1.75015
H     -0.74832     1.04651     0.83003
H     -3.98251     0.40932     3.05522
H     -2.52817    -0.42371     3.62969
H     -2.59089     1.34032     3.69759
C      3.30844     1.45554    -2.16424
C      4.75330     1.85846    -2.07308
O      2.80473     0.95397    -3.13921
O      2.63770     1.72683    -1.03603
H      1.71012     1.44905    -1.13365
H      5.37244     1.02574    -2.39733
H      4.92926     2.68307    -2.76130
H      5.00834     2.15763    -1.06262
C     -0.83132     0.72956    -1.82932
C     -0.33895     0.82487    -3.23555
O     -0.11502     0.96500    -0.85894
O     -2.08085     0.35949    -1.71933
H     -2.36289     0.28850    -0.76220
H      0.23615     1.73811    -3.35118
H      0.34991     0.00428    -3.42214
H     -1.17131     0.78588    -3.92986
