 72
-2063.3243695590745
C      4.75767    -0.65898     3.78034
C      5.10646    -1.04388     5.18356
O      4.69075     0.50353     3.42039
O      4.51715    -1.68561     2.99450
H      4.23720    -1.37432     2.09438
H      5.52417    -2.04433     5.21323
H      5.79917    -0.32067     5.60232
H      4.19567    -1.02105     5.77676
C      0.03771     3.50633     0.78787
C      0.61125     3.37782     2.15889
O     -1.09309     3.11744     0.50579
O      0.83892     4.05877    -0.08271
H      0.41012     4.09637    -0.98586
H      0.34688     4.27018     2.72629
H      0.18100     2.50806     2.64307
H      1.68898     3.29169     2.10058
C     -1.09672     3.13512    -2.81424
C     -1.26414     2.67832    -4.22610
O     -0.26132     3.95315    -2.46532
O     -1.93724     2.56148    -1.96939
H     -1.70544     2.81608    -1.04583
H     -2.31876     2.58284    -4.45925
H     -0.77028     3.37533    -4.89602
H     -0.80147     1.69745    -4.32506
C      0.20775    -2.61349    -1.12073
C      1.14377    -3.14627    -0.09038
O     -0.97184    -2.93170    -1.17672
O      0.75257    -1.74719    -1.95329
H      0.08441    -1.44800    -2.62648
H      0.68564    -3.96550     0.44879
H      2.07191    -3.45954    -0.55816
H      1.38081    -2.36027     0.61958
C      1.33811    -2.33025     3.87779
C      1.93965    -2.93707     5.11041
O      0.74171    -2.95235     3.03491
O      1.54490    -1.00910     3.81203
H      1.13750    -0.67287     2.99676
H      3.00594    -3.08825     4.94921
H      1.80867    -2.27432     5.96173
H      1.47946    -3.90148     5.30683
C     -1.96427    -1.79393    -4.10105
C     -2.62601    -1.66524    -5.43584
O     -1.03823    -1.06826    -3.75771
O     -2.46729    -2.72547    -3.32555
H     -1.92661    -2.81166    -2.49280
H     -3.32547    -2.47819    -5.59348
H     -3.14912    -0.71107    -5.46286
H     -1.86878    -1.64985    -6.21662
C     -1.37597    -0.33769     1.69282
C     -2.07705    -1.61618     2.01668
O     -0.16921    -0.17697     1.69236
O     -2.22488     0.63504     1.37126
H     -1.73797     1.44525     1.14560
H     -2.99046    -1.40697     2.57016
H     -2.34596    -2.10654     1.08206
H     -1.41846    -2.26948     2.57345
C     -4.82183     0.80754    -2.86217
C     -3.86686     0.17356    -1.90006
O     -4.60480     1.02307    -4.02899
O     -6.00509     1.12491    -2.29381
H     -6.54689     1.51672    -2.99066
H     -3.92663     0.64524    -0.92522
H     -4.11686    -0.87910    -1.79757
H     -2.86324     0.27606    -2.28814
C      3.22155     0.32354     0.48100
C      2.41555     0.63981    -0.73163
O      3.73221    -0.77047     0.66836
O      3.30501     1.31188     1.34327
H      3.85210     1.04400     2.13003
H      2.80312     0.10411    -1.59179
H      1.41254     0.26702    -0.53867
H      2.38999     1.70751    -0.90268
