 48
-1375.5505778292872
C     -4.12623     3.38869    -1.09563
C     -4.64168     4.40699    -2.06837
O     -4.83565     2.54504    -0.57319
O     -2.83106     3.49836    -0.86269
H     -2.53478     2.81465    -0.21987
H     -4.47425     5.40447    -1.66834
H     -4.09007     4.32949    -3.00224
H     -5.69863     4.24511    -2.24002
C      0.88433    -0.35512    -1.91897
C     -0.55141     0.02562    -2.09724
O      1.39020    -1.30091    -2.50100
O      1.55393     0.41770    -1.08523
H      2.47955     0.08084    -0.99342
H     -1.16485    -0.78831    -1.72186
H     -0.76823     0.93960    -1.55669
H     -0.75265     0.14571    -3.15987
C     -2.71476     0.72313     1.36973
C     -2.21787    -0.36612     2.25646
O     -1.97093     1.57676     0.87980
O     -4.00035     0.69152     1.13624
H     -4.28332     1.39992     0.49485
H     -1.46448     0.03218     2.92864
H     -3.04375    -0.81208     2.80107
H     -1.72855    -1.11386     1.62896
C      1.42546     0.92196     2.09630
C      2.86875     1.26406     2.27354
O      0.97576    -0.20699     2.16912
O      0.66070     1.97313     1.85448
H     -0.23918     1.67164     1.62649
H      2.97316     2.27917     2.64288
H      3.33750     0.55539     2.94964
H      3.36387     1.19203     1.30655
C      4.19437    -1.81119    -0.84228
C      5.13567    -2.56096     0.05171
O      3.99111    -0.61209    -0.74138
O      3.59838    -2.58027    -1.73257
H      2.83932    -2.09421    -2.13467
H      5.56872    -3.40463    -0.47671
H      5.90656    -1.89196     0.41939
H      4.56114    -2.93603     0.89819
C      0.46957    -2.85183     0.22736
C      0.64631    -4.17906    -0.44822
O     -0.55619    -2.20757     0.20849
O      1.57644    -2.43336     0.84166
H      1.36869    -1.59091     1.30141
H      1.25190    -4.03940    -1.34240
H      1.16084    -4.88095     0.20402
H     -0.32378    -4.56986    -0.73526
