 56
-1604.8051603486567
C      1.71677     1.27950    -1.13550
C      0.91266     2.54056    -1.12466
O      2.43672     0.93382    -2.04195
O      1.54618     0.54956    -0.02240
H      2.13163    -0.22369    -0.06926
H     -0.14520     2.29553    -1.16666
H      1.05880     3.09533    -0.20136
H      1.17983     3.14854    -1.98349
C     -3.39106    -0.42922     0.65599
C     -4.35610    -0.06143     1.74321
O     -2.73535     0.40171     0.04241
O     -3.33274    -1.72028     0.42755
H     -2.67527    -1.92844    -0.28732
H     -5.36672    -0.28778     1.40820
H     -4.15252    -0.66396     2.62529
H     -4.26061     0.99224     1.96771
C     -0.21514     3.07131     3.52986
C      0.72952     2.66847     4.62318
O     -1.42620     2.93175     3.63380
O      0.37159     3.57371     2.46505
H     -3.56365     2.90470    -1.01942
H      1.73559     3.00171     4.39634
H      0.38573     3.08483     5.56610
H      0.70833     1.58477     4.71570
C      1.32113    -4.21287    -0.18750
C      0.19455    -5.09807     0.24334
O      1.95239    -4.39351    -1.21736
O      1.54519    -3.20259     0.63055
H      2.29510    -2.65147     0.29969
H      0.27466    -6.05945    -0.25209
H      0.20125    -5.20917     1.32326
H     -0.73969    -4.62038    -0.04595
C     -0.91174    -1.41320    -2.09025
C      0.19723    -1.77984    -3.02661
O     -1.55238    -2.25039    -1.47255
O     -1.10775    -0.11775    -1.98072
H     -1.73630     0.09154    -1.24359
H      1.11368    -1.85583    -2.44566
H      0.00257    -2.75006    -3.46819
H      0.34019    -1.02013    -3.78499
C     -2.58756     3.74051     0.64299
C     -3.50732     3.87488    -0.52931
O     -1.39167     3.98435     0.57615
O     -3.18398     3.32322     1.73718
H     -2.51999     3.20159     2.47242
H     -0.29750     3.76399     1.75393
H     -4.50157     4.15356    -0.19490
H     -3.10999     4.60151    -1.23034
C      4.05372    -1.78968    -1.42629
C      5.08773    -0.83705    -1.92391
O      3.47844    -1.64433    -0.34764
O      3.79777    -2.78802    -2.23589
H      3.12402    -3.41173    -1.85158
H      4.58329     0.09096    -2.18642
H      5.79233    -0.62258    -1.12464
H      5.58941    -1.25047    -2.79115
