 64
-1834.0618176967546
C      0.61207    -0.88885    -2.70470
C     -0.49456    -0.87845    -3.70261
O      0.65621    -1.58839    -1.70691
O      1.57681    -0.02934    -3.00174
H      2.25035    -0.01315    -2.29930
H     -0.09589    -0.73810    -4.70391
H     -1.07039    -1.79098    -3.62004
H     -1.15578    -0.04329    -3.46896
C      6.49927     2.52777    -1.32168
C      7.71960     3.25944    -1.78957
O      6.08607     2.62023    -0.17370
O      5.92306     1.78822    -2.24359
H      5.12166     1.33628    -1.88327
H      8.56813     2.94971    -1.18453
H      7.90655     3.05615    -2.83737
H      7.57633     4.32437    -1.62599
C     -1.15380    -1.81568     2.41536
C     -0.26859    -3.00416     2.61681
O     -2.34071    -1.80025     2.66439
O     -0.51534    -0.75923     1.92021
H     -1.15869    -0.05965     1.70021
H      0.60556    -2.72294     3.19930
H     -0.82228    -3.78630     3.12558
H      0.06996    -3.36258     1.64832
C      3.49407     0.50331    -0.04045
C      2.38965    -0.34577     0.48670
O      3.75580     0.56307    -1.24028
O      4.14969     1.19109     0.85777
H      4.89490     1.71655     0.44796
H      1.45694     0.03560     0.08821
H      2.49501    -1.35658     0.11042
H      2.36169    -0.31520     1.56814
C     -2.43857    -2.97204    -0.94197
C     -3.48627    -3.78657    -0.24846
O     -2.66296    -2.18282    -1.82804
O     -1.21122    -3.19308    -0.45003
H     -0.57236    -2.61583    -0.91160
H     -3.21976    -4.84182    -0.25317
H     -3.56667    -3.45106     0.78192
H     -4.44097    -3.63720    -0.73985
C      0.72894     3.05393     0.94793
C      1.87095     3.93074     1.36040
O      0.72230     2.42741    -0.10247
O     -0.24146     3.00116     1.83128
H     -0.94720     2.38718     1.51797
H      2.46703     4.19529     0.49442
H      1.50416     4.81558     1.87353
H      2.49621     3.36641     2.05105
C     -2.20495     1.05151    -0.37783
C     -3.51751     0.56554    -0.86895
O     -1.98017     1.26414     0.81491
O     -1.28155     1.25004    -1.28651
H     -0.47415     1.66212    -0.87754
H     -3.82921    -0.29962    -0.29203
H     -4.25755     1.34345    -0.69037
H     -3.46667     0.31586    -1.91912
C     -5.66752    -1.53483     2.09605
C     -7.16160    -1.49280     2.27747
O     -5.11379    -1.37874     1.03160
O     -5.03053    -1.77357     3.24248
H     -4.06707    -1.77849     3.07975
H     -7.61941    -2.22085     1.61051
H     -7.42479    -1.70275     3.30800
H     -7.52909    -0.51067     1.98588
