 80
-2292.579132921749
C      3.14566     2.96455    -3.08666
C      3.58435     2.44855    -4.42144
O      2.04572     3.46882    -2.89960
O      4.04358     2.82368    -2.13725
H      3.70518     3.14679    -1.26873
H      2.85897     1.71677    -4.76877
H      3.58824     3.26935    -5.13469
H      4.56895     2.00359    -4.34858
C     -3.80382     1.72611    -0.29627
C     -4.93087     1.00137     0.36632
O     -3.30901     2.76064     0.10717
O     -3.39033     1.11353    -1.40033
H     -2.63384     1.60076    -1.79011
H     -4.49840     0.26952     1.04520
H     -5.53867     1.69396     0.94185
H     -5.53208     0.48177    -0.37281
C     -0.08123    -6.66308    -0.42757
C      0.95845    -7.73814    -0.32696
O     -1.07269    -6.62857     0.28458
O      0.18417    -5.77318    -1.36177
H     -0.46880    -5.03873    -1.33591
H      1.90380    -7.29364    -0.02465
H      0.64935    -8.48260     0.39618
H      1.10639    -8.19616    -1.30177
C      0.26941    -3.51966     2.48173
C      0.04003    -4.75248     3.31254
O      0.06080    -2.39315     2.86134
O      0.72849    -3.81493     1.26076
H      0.83985    -2.97277     0.77249
H      0.94994    -5.34844     3.35866
H     -0.26434    -4.46782     4.31496
H     -0.73847    -5.36004     2.85572
C     -2.20510    -3.48636    -0.15517
C     -2.79161    -2.15742     0.17135
O     -1.49736    -3.66405    -1.14544
O     -2.48458    -4.43223     0.70071
H     -2.00004    -5.27538     0.49835
H     -2.07186    -1.60091     0.77089
H     -2.96149    -1.59612    -0.73875
H     -3.70989    -2.26059     0.73783
C     -1.53718     1.21348     2.43083
C     -0.76680     0.80357     3.64407
O     -2.09838     0.44067     1.68912
O     -1.53466     2.54055     2.22964
H     -2.09725     2.73437     1.45330
H     -0.74742    -0.27850     3.71320
H      0.24698     1.18844     3.56735
H     -1.22985     1.23645     4.53152
C      3.32470     0.72302     2.11853
C      3.52814    -0.65562     2.67102
O      2.40263     1.44878     2.40586
O      4.28616     1.06506     1.24892
H      4.09230     1.95460     0.91255
H      2.63111    -0.97061     3.18917
H      3.75265    -1.33963     1.85733
H      4.37658    -0.65356     3.35598
C     -1.55972     3.50837    -3.10022
C     -2.94707     4.06437    -3.12723
O     -1.27750     2.42002    -2.63372
O     -0.64855     4.32203    -3.61833
H      0.23284     3.93606    -3.48201
H     -3.02749     4.88519    -3.83349
H     -3.63952     3.26636    -3.37731
H     -3.19642     4.40989    -2.12521
C      2.00380     4.02293     0.56907
C      1.58986     4.42261     1.94476
O      3.10219     3.55620     0.28762
O      1.07407     4.23420    -0.34266
H      1.39369     3.98750    -1.23269
H      2.15216     3.84276     2.66695
H      1.80088     5.48490     2.07123
H      0.52519     4.25486     2.05787
C      0.40194    -0.66905    -0.74412
C      0.72451     0.78456    -0.86361
O      0.95264    -1.42467     0.03158
O     -0.54272    -1.06050    -1.58320
H     -0.77212    -2.00181    -1.44737
H      0.06327     1.34597    -0.20918
H      1.74981     0.94828    -0.55108
H      0.56024     1.12523    -1.87745
