 72
-2063.3266717189726
C     -1.46554     0.15046     1.69283
C     -1.31009     1.63092     1.56866
O     -2.51413    -0.42186     1.85031
O     -0.28928    -0.49982     1.59939
H     -0.45422    -1.45316     1.72219
H     -2.17081     2.12496     2.00801
H     -0.39935     1.95286     2.06235
H     -1.23298     1.89133     0.51742
C      2.25455     0.76150     0.17981
C      2.36611    -0.67453    -0.20290
O      1.69546     1.62118    -0.47670
O      2.84646     1.04205     1.33566
H      2.67823     1.97135     1.56003
H      3.41289    -0.95885    -0.29022
H      1.91462    -1.28493     0.57308
H      1.85418    -0.85640    -1.14059
C      1.40792     4.57517     1.92258
C      1.93919     5.23121     0.68849
O      1.94576     3.58628     2.41742
O      0.33482     5.12306     2.42402
H      0.01243     4.61557     3.22135
H      1.33612     6.09426     0.43250
H      2.97240     5.52428     0.85866
H      1.92691     4.50579    -0.12194
C     -2.11112    -3.66553     1.85514
C     -3.08766    -3.32520     2.93081
O     -0.96164    -3.22323     1.82829
O     -2.57416    -4.47091     0.93641
H     -1.87359    -4.70365     0.26926
H     -2.62351    -3.48608     3.90109
H     -3.32382    -2.26589     2.84419
H     -3.98313    -3.92597     2.82163
C     -0.95925     1.79344    -2.54498
C     -1.78973     2.30276    -3.68605
O     -1.41524     1.28526    -1.54727
O      0.34731     1.92016    -2.76759
H      0.83539     1.70754    -1.94276
H     -2.80975     2.47135    -3.35383
H     -1.36722     3.21557    -4.09834
H     -1.79709     1.54510    -4.46817
C      0.47212    -4.68174    -0.80462
C      1.46201    -5.08018    -1.85345
O     -0.69246    -5.04751    -0.81735
O      0.96541    -3.88824     0.12497
H      0.26275    -3.64049     0.77131
H      1.52769    -4.27217    -2.57945
H      2.44256    -5.22172    -1.40935
H      1.12308    -5.98028    -2.35450
C      1.35933    -0.16220    -4.97330
C      2.26202     0.81980    -5.65714
O      0.21991    -0.38591    -5.34812
O      1.91176    -0.75255    -3.93095
H      1.22851    -1.26522    -3.43352
H      2.30739     1.72227    -5.04894
H      3.26689     0.41360    -5.73537
H      1.86673     1.06362    -6.63743
C     -1.19520    -1.64326    -2.64280
C     -2.16325    -1.82931    -1.52147
O     -0.00067    -1.87848    -2.52376
O     -1.72952    -1.21366    -3.75944
H     -1.02252    -0.99772    -4.41772
H     -1.61934    -1.70674    -0.59132
H     -2.96923    -1.10795    -1.57962
H     -2.56649    -2.84079    -1.55798
C     -0.06724     2.73170     4.96892
C     -0.67288     2.01825     6.14015
O     -0.55680     3.73376     4.47093
O      1.04174     2.16616     4.52598
H      1.41693     2.67613     3.77097
H     -0.86710     0.98127     5.87299
H      0.03371     2.01651     6.96764
H     -1.59313     2.50804     6.43525
