 72
-2063.3208301604927
C      2.15184    -4.70830     2.75004
C      2.49170    -6.09213     2.31498
O      1.02661    -4.22572     2.62926
O      3.14894    -4.04146     3.26705
H      2.87413    -3.11827     3.49143
H      2.94726    -6.02574     1.32987
H      3.21218    -6.53186     2.99643
H      1.58981    -6.68984     2.25055
C      0.11378     1.43995    -3.41195
C     -1.29873     0.99416    -3.19235
O      0.48374     2.59237    -3.19971
O      0.92292     0.50494    -3.83917
H      1.83879     0.86148    -4.01839
H     -1.97216     1.77950    -3.51682
H     -1.49824     0.06468    -3.71487
H     -1.45178     0.85251    -2.12373
C     -3.04787    -0.18259     0.67969
C     -1.85975    -0.80234     1.33548
O     -3.37743    -0.43662    -0.47096
O     -3.70228     0.66621     1.44581
H     -4.46275     1.05739     0.94850
H     -1.18875    -0.00878     1.64938
H     -2.16529    -1.34738     2.22465
H     -1.36146    -1.45444     0.63446
C      1.19757    -1.30865     4.21993
C      0.89029    -0.09956     5.03749
O      2.33002    -1.58687     3.82778
O      0.16031    -2.05645     3.92260
H      0.44335    -2.87355     3.44452
H     -0.07997    -0.19876     5.51025
H      1.67771     0.05223     5.76974
H      0.88675     0.75259     4.35770
C     -6.16156     1.25467    -0.96778
C     -7.46073     1.73520    -1.55185
O     -5.66618     1.77444     0.02307
O     -5.62083     0.24660    -1.61058
H     -4.75612    -0.02147    -1.18680
H     -7.36345     2.78604    -1.81348
H     -7.72237     1.14888    -2.42472
H     -8.23721     1.65807    -0.79448
C      1.76748    -2.92715    -0.48352
C      1.85178    -2.06290    -1.70673
O      2.55231    -3.79973    -0.21494
O      0.71932    -2.61320     0.29934
H      0.74750    -3.18128     1.08740
H      2.13383    -2.67060    -2.56307
H      0.91150    -1.55841    -1.89956
H      2.63018    -1.32018    -1.54984
C      3.84188     2.34108    -3.64309
C      5.31450     2.62082    -3.60625
O      3.35062     1.40759    -4.25845
O      3.12966     3.19670    -2.93662
H      2.16999     3.01172    -3.04163
H      5.64400     2.68516    -2.57220
H      5.85253     1.83841    -4.12711
H      5.50957     3.58318    -4.07516
C     -1.67705     3.39932    -0.51063
C     -2.66453     4.05694     0.40060
O     -1.20328     2.30301    -0.32229
O     -1.38529     4.13678    -1.58750
H     -0.78231     3.61898    -2.15284
H     -2.51389     5.13360     0.41473
H     -3.66941     3.84886     0.03808
H     -2.56485     3.63847     1.39567
C      1.99566     0.75025     1.20973
C      2.00764     1.48883    -0.09339
O      1.29337     1.03885     2.14794
O      2.85667    -0.28057     1.23685
H      2.76654    -0.73037     2.09175
H      1.14404     2.13943    -0.15386
H      2.91667     2.07735    -0.17745
H      1.99125     0.78800    -0.92249
