 48
-1375.5496582515534
C     -2.57587     1.17366     2.94222
C     -3.70872     0.28585     3.36515
O     -2.72738     2.16511     2.26341
O     -1.38988     0.73238     3.35630
H     -0.69081     1.27914     2.93779
H     -4.58591     0.89037     3.57746
H     -3.95122    -0.37039     2.52920
H     -3.43986    -0.31878     4.22693
C      1.73144    -1.67286     0.81038
C      0.75186    -1.64592     1.93702
O      2.29795    -0.66823     0.38506
O      1.93849    -2.86575     0.31434
H      2.63756    -2.84742    -0.39195
H     -0.20888    -2.00449     1.57941
H      1.08435    -2.31634     2.72862
H      0.64728    -0.63675     2.31393
C      0.14916     2.34103     0.69844
C     -0.66853     3.50404     0.23693
O      0.37445     2.04956     1.85739
O      0.64841     1.62908    -0.31250
H      1.20747     0.92659     0.05549
H     -1.15909     3.25120    -0.69617
H     -1.39530     3.76520     0.99795
H      0.00055     4.34784     0.06423
C     -3.63254     0.90653    -0.70018
C     -4.81425     1.57943    -0.08330
O     -3.16309    -0.13988    -0.27298
O     -3.12807     1.55259    -1.72759
H     -2.39863     1.02004    -2.15157
H     -5.44272     0.83903     0.39902
H     -4.44280     2.25950     0.68207
H     -5.36835     2.13876    -0.83091
C      4.66652    -1.95153    -1.64327
C      5.88713    -2.09575    -2.50144
O      3.77974    -2.79095    -1.59854
O      4.64178    -0.83126    -0.94846
H      3.81121    -0.76416    -0.42243
H      6.77551    -2.07868    -1.87447
H      5.83578    -3.02524    -3.05443
H      5.95155    -1.25254    -3.18528
C     -0.54568    -0.69677    -2.18903
C      0.76788    -1.19483    -2.69400
O     -1.21815     0.12435    -2.78786
O     -0.90241    -1.22057    -1.03510
H     -1.77721    -0.84836    -0.74042
H      0.91044    -0.91604    -3.73131
H      1.56109    -0.75287    -2.09684
H      0.83363    -2.27209    -2.57527
