 48
-1375.5438659738847
C     -1.93598     1.94340    -1.45191
C     -3.29928     2.40458    -1.03129
O     -1.12525     2.61865    -2.03537
O     -1.69190     0.67628    -1.06793
H     -0.78559     0.44715    -1.32508
H     -4.02084     1.59366    -1.08471
H     -3.24022     2.74957     0.00033
H     -3.60763     3.23539    -1.65756
C      2.00063    -3.28788     0.25594
C      1.84408    -4.65929     0.83032
O      1.16436    -2.80264    -0.50507
O      3.07231    -2.65106     0.63225
H      3.11918    -1.74394     0.20935
H      1.61449    -5.35202     0.02489
H      2.74437    -4.95864     1.35639
H      0.99057    -4.65354     1.50579
C      0.02685     1.24241     1.75851
C      0.15533    -0.22968     1.98192
O      0.97371     1.93000     1.40439
O     -1.17853     1.71921     1.95135
H     -1.19939     2.69512     1.76894
H     -0.41828    -0.56307     2.84014
H     -0.22975    -0.73612     1.10037
H      1.20533    -0.47509     2.09090
C     -0.35880     4.90493     0.75193
C     -0.56186     6.27006     0.16782
O     -1.24238     4.29745     1.33794
O      0.85148     4.42697     0.56154
H      0.92364     3.50756     0.92119
H      0.25259     6.92364     0.46839
H     -0.54485     6.19310    -0.91737
H     -1.51459     6.67070     0.49323
C      2.27171     0.29107    -1.07097
C      2.44083     1.66737    -1.60515
O      3.13526    -0.28626    -0.43699
O      1.09282    -0.27148    -1.32233
H      1.11138    -1.22062    -1.04651
H      1.64614     1.91156    -2.29906
H      2.42002     2.36032    -0.76454
H      3.41613     1.74568    -2.07989
C     -1.96086    -4.63779     0.02854
C     -3.15360    -5.46378    -0.36422
O     -1.79622    -4.11766     1.10305
O     -1.06923    -4.55584    -0.97620
H     -0.33693    -3.97897    -0.69689
H     -2.82910    -6.45381    -0.67997
H     -3.83343    -5.54216     0.47641
H     -3.65850    -4.99974    -1.20998
