 48
-1375.5471730066424
C     -1.48258    -0.17222     1.46118
C     -2.24834     1.02147     1.93160
O     -1.91362    -0.92597     0.59977
O     -0.30760    -0.32434     2.02457
H      0.09551    -1.18236     1.74393
H     -3.26717     0.72903     2.17045
H     -1.76759     1.47605     2.78853
H     -2.30253     1.73991     1.11664
C      0.98812    -0.87620    -1.77347
C     -0.21005    -0.42212    -2.53083
O      1.55759    -0.18051    -0.94030
O      1.37890    -2.09496    -2.05697
H      2.20119    -2.32350    -1.55246
H     -0.30743     0.65218    -2.43267
H     -0.13619    -0.71923    -3.57411
H     -1.08615    -0.90068    -2.09593
C      0.26746     3.02184    -0.05794
C      0.06809     4.34940     0.59273
O     -0.46408     2.56075    -0.91558
O      1.32080     2.36313     0.40602
H      1.37449     1.50028    -0.03539
H      0.00787     5.11470    -0.17742
H     -0.88959     4.34865     1.10812
H      0.87925     4.56015     1.28063
C     -3.68554     3.91342    -0.72780
C     -5.09318     4.29571    -1.09585
O     -3.17994     4.17024     0.33845
O     -3.06394     3.25893    -1.71565
H     -2.15660     3.03480    -1.43385
H     -5.33530     3.95341    -2.09553
H     -5.77517     3.86302    -0.36713
H     -5.19022     5.37720    -1.02919
C      3.88856    -2.21123     0.39512
C      4.79404    -2.86989     1.38963
O      3.50397    -2.76731    -0.62197
O      3.54421    -0.98793     0.73481
H      2.87881    -0.63871     0.10606
H      5.29074    -3.72047     0.93713
H      5.51575    -2.15067     1.76425
H      4.19066    -3.20988     2.22869
C      0.14747    -3.48612     0.56081
C      0.74299    -4.82969     0.30288
O      0.65812    -2.67932     1.32228
O     -0.93653    -3.24485    -0.13692
H     -1.32535    -2.36871     0.12387
H     -0.02196    -5.54985     0.03092
H      1.43939    -4.72304    -0.52787
H      1.29491    -5.15385     1.17899
