 64
-1834.0649042337125
C     -0.66115     1.80557    -0.43326
C      0.50107     2.70402    -0.15408
O     -0.73955     0.67274     0.00743
O     -1.57564     2.33931    -1.21604
H     -2.25391     1.66040    -1.43442
H      1.06220     2.87028    -1.07054
H      0.16604     3.66190     0.23092
H      1.13297     2.22147     0.57705
C      3.94257     2.26673     1.76192
C      4.02483     3.45947     2.65097
O      3.76584     1.12606     2.17391
O      4.05817     2.54772     0.47891
H      4.00332     1.73228    -0.06855
H      4.33405     4.32919     2.08318
H      3.03784     3.62141     3.08056
H      4.71545     3.25338     3.46415
C      0.95818    -0.47836    -3.03739
C     -0.30919    -0.27790    -3.79451
O      1.25681    -1.49654    -2.44166
O      1.75873     0.58570    -3.05929
H      2.55125     0.38663    -2.53521
H     -0.14229     0.37796    -4.64441
H     -0.69810    -1.23923    -4.11209
H     -1.04751     0.17791    -3.13752
C      4.20439    -0.83368    -0.62823
C      4.42455    -2.01534    -1.51219
O      3.91114     0.27588    -1.06123
O      4.34604    -1.08802     0.65223
H      4.13886    -0.29213     1.19570
H      4.94858    -1.69701    -2.40792
H      4.97410    -2.78570    -0.98236
H      3.45003    -2.39702    -1.80906
C     -3.41368    -0.88063     1.65204
C     -4.17551    -2.01773     2.26955
O     -3.83277     0.24838     1.56640
O     -2.22376    -1.26414     1.18481
H     -1.79370    -0.53467     0.68539
H     -4.45937    -2.72382     1.48999
H     -3.56299    -2.55026     2.99484
H     -5.07275    -1.63705     2.74683
C     -4.17235    -0.19083    -1.52978
C     -5.41650     0.56613    -1.18526
O     -3.13417     0.33623    -1.88519
O     -4.28887    -1.50247    -1.39931
H     -3.43442    -1.92487    -1.66048
H     -5.46102     1.48835    -1.75658
H     -6.29720    -0.04438    -1.36050
H     -5.36232     0.81756    -0.12610
C      0.41952     1.67786     3.35811
C     -1.02251     1.50376     3.72204
O      0.90090     2.69251     2.90856
O      1.13609     0.56752     3.56866
H      2.03391     0.73212     3.24438
H     -1.11850     0.92531     4.63686
H     -1.49823     2.47263     3.82492
H     -1.52384     0.95439     2.92483
C     -1.43456    -3.26560    -1.06312
C     -2.19409    -4.19335    -0.16896
O     -1.94167    -2.63492    -1.97512
O     -0.15659    -3.19083    -0.75972
H      0.29710    -2.55881    -1.35173
H     -2.24615    -3.75286     0.82308
H     -3.19541    -4.33040    -0.56147
H     -1.68338    -5.15132    -0.09016
