 48
-1375.543214849787
C      1.64418     2.67360    -1.71093
C      2.47148     2.18455    -2.86103
O      1.94064     3.59858    -0.99298
O      0.52546     1.94973    -1.55108
H     -0.02182     2.36820    -0.86698
H      1.87569     2.17619    -3.77172
H      3.33758     2.82557    -2.98479
H      2.78975     1.16273    -2.66412
C      1.21855    -2.82323    -1.52251
C      0.70818    -3.79367    -2.53131
O      2.16536    -2.08398    -1.72383
O      0.54707    -2.82415    -0.37801
H      0.91653    -2.12793     0.23444
H      0.46397    -4.73577    -2.05136
H     -0.21800    -3.41062    -2.95363
H      1.44408    -3.92671    -3.31720
C     -1.73206     0.57572     1.81474
C     -2.09861    -0.85008     2.07166
O     -1.05530     1.22655     2.59804
O     -2.18495     1.06063     0.67823
H     -1.87032     1.98677     0.55787
H     -2.56906    -0.92940     3.04870
H     -2.75537    -1.22466     1.29546
H     -1.18190    -1.43424     2.09348
C     -0.42977     4.12057     1.11905
C      0.08521     5.48772     0.82119
O     -1.09283     3.47001     0.31262
O     -0.11057     3.65582     2.30025
H     -0.49268     2.74675     2.44149
H     -0.68935     6.06681     0.32651
H      0.41931     5.96780     1.73337
H      0.91919     5.38031     0.12936
C      2.24008    -0.04691     0.87769
C      2.50691     1.10646     1.79002
O      1.48676    -0.96384     1.16916
O      2.88727     0.01763    -0.26367
H      2.65034    -0.75664    -0.83673
H      1.86526     1.03249     2.66028
H      3.55149     1.09236     2.09568
H      2.31861     2.03404     1.25691
C     -2.72730    -4.49183    -0.72424
C     -4.13891    -4.81912    -0.32378
O     -2.24087    -4.70087    -1.80603
O     -2.05319    -3.91842     0.28878
H     -1.16394    -3.68820    -0.02688
H     -4.13153    -5.56527     0.46873
H     -4.61970    -3.92539     0.06894
H     -4.68115    -5.19386    -1.18360
