 80
-2292.5851191622232
C      2.77930    -2.38497     1.27997
C      2.28709    -3.38841     2.26595
O      3.51627    -2.65255     0.34487
O      2.33566    -1.16264     1.51150
H      2.51834    -0.58977     0.73858
H      1.23618    -3.57523     2.04830
H      2.84950    -4.31225     2.17114
H      2.35294    -2.98586     3.27258
C     -3.41152    -1.74441    -3.12043
C     -4.11381    -3.05605    -2.94518
O     -3.99239    -0.67414    -3.14484
O     -2.10126    -1.86218    -3.24034
H     -1.67647    -0.97036    -3.36160
H     -5.16714    -2.88188    -2.75648
H     -3.99591    -3.64935    -3.85014
H     -3.65701    -3.59995    -2.12413
C     -2.08372    -3.15609     2.19058
C     -2.62773    -2.99907     3.57658
O     -1.41004    -2.29175     1.64552
O     -2.38861    -4.29890     1.61418
H     -1.99357    -4.33444     0.70578
H     -1.79482    -2.90617     4.26973
H     -3.19477    -2.07267     3.62751
H     -3.25142    -3.84763     3.83348
C      2.35832     3.83606    -1.32430
C      2.60548     5.27894    -1.01455
O      2.01787     3.40579    -2.39245
O      2.54997     3.04130    -0.24496
H      2.50156     2.10527    -0.51288
H      2.51867     5.86394    -1.92362
H      1.86933     5.61292    -0.28656
H      3.59366     5.40119    -0.57745
C     -0.35856    -3.61681    -1.18301
C      0.36704    -3.85570    -2.46526
O     -1.30967    -4.27772    -0.80649
O      0.14042    -2.60905    -0.48309
H     -0.41316    -2.45105     0.31949
H      0.01812    -3.13316    -3.19820
H      1.43062    -3.70371    -2.31341
H      0.16224    -4.86078    -2.82294
C     -1.58948     1.60150    -3.52514
C     -0.85906     2.89592    -3.64935
O     -1.03498     0.50894    -3.54382
O     -2.89002     1.73772    -3.38786
H     -3.32658     0.85222    -3.32275
H     -0.78264     3.34640    -2.66428
H      0.14239     2.72568    -4.02195
H     -1.41153     3.56782    -4.30127
C      0.37368     4.20272     2.03658
C     -0.47246     4.41342     3.24719
O     -0.00411     4.41227     0.89812
O      1.58947     3.75556     2.30837
H      2.05603     3.57395     1.47122
H     -0.83845     5.43860     3.25331
H     -1.33093     3.74956     3.17967
H      0.10080     4.20532     4.14200
C      0.61421    -0.20254     4.97847
C      0.41486     0.73802     3.83406
O      0.54783    -1.40540     4.92073
O      0.88367     0.43500     6.14085
H      0.99437    -0.25537     6.80613
H      0.29143     0.17590     2.91922
H     -0.47886     1.33278     3.99028
H      1.26306     1.40864     3.74166
C      2.90440    -0.25249    -1.88654
C      2.68388     0.41705    -3.20415
O      2.74200     0.30919    -0.80464
O      3.26459    -1.50847    -1.98019
H      3.41693    -1.91851    -1.08256
H      3.14623     1.39791    -3.19277
H      3.07490    -0.20156    -4.00548
H      1.61231     0.56643    -3.34101
C     -1.59039     1.51885     0.52672
C     -2.25283     0.29274    -0.03027
O     -1.55158     1.78519     1.70388
O     -1.04207     2.29722    -0.41547
H     -0.64438     3.09090     0.00496
H     -1.51850    -0.34876    -0.51510
H     -2.71972    -0.25743     0.77767
H     -2.99076     0.57035    -0.77832
