 48
-1375.5507851688378
C     -2.40433    -0.42530     3.13097
C     -2.58623    -1.11194     4.44578
O     -3.31421    -0.25510     2.33340
O     -1.16941    -0.02629     2.90472
H     -1.08835     0.34362     1.99737
H     -3.64256    -1.24817     4.64559
H     -2.09436    -2.08080     4.39308
H     -2.11241    -0.53508     5.23588
C      2.71717     0.53517    -2.69180
C      2.89921     1.11738    -4.05513
O      1.91872    -0.35924    -2.44665
O      3.46914     1.08734    -1.76550
H      3.31470     0.63373    -0.89508
H      3.95031     1.31495    -4.24575
H      2.48676     0.44544    -4.79930
H      2.35824     2.06200    -4.07776
C     -1.74858     0.54802    -0.48980
C     -1.42471     0.63150    -1.94321
O     -0.94150     0.84855     0.38824
O     -2.95403     0.11943    -0.22232
H     -3.10345     0.04654     0.76077
H     -1.07808     1.63643    -2.17218
H     -0.59567    -0.04530    -2.14075
H     -2.28486     0.36951    -2.55133
C      1.29585     3.38904    -1.27601
C      2.30686     4.49344    -1.20359
O      0.80586     2.97718    -2.30201
O      1.02885     2.87319    -0.07566
H      0.38777     2.14978    -0.16214
H      2.12694     5.12606    -0.33856
H      3.29239     4.04092    -1.09586
H      2.28051     5.07375    -2.12020
C      2.13296    -0.99766     0.74174
C      1.88965    -1.54298     2.10609
O      2.99526    -0.17395     0.50085
O      1.32135    -1.47353    -0.19702
H      1.55253    -1.05085    -1.07311
H      1.20552    -2.38037     2.05880
H      2.84022    -1.83415     2.54750
H      1.46256    -0.75347     2.71997
C     -1.94068    -3.04701     0.72806
C     -3.37070    -3.41742     0.47133
O     -1.39670    -3.10921     1.80282
O     -1.32359    -2.60936    -0.38117
H     -0.42297    -2.33096    -0.14843
H     -3.48781    -3.85184    -0.51736
H     -3.70845    -4.10454     1.23974
H     -3.97037    -2.50971     0.52384
