 56
-1604.8053262349968
C      5.07453     0.81152    -1.40822
C      6.27442     1.54297    -1.93286
O      4.91278     0.53251    -0.23293
O      4.20607     0.50134    -2.35277
H      3.46645    -0.01360    -1.97483
H      5.95213     2.45781    -2.42443
H      6.94806     1.77135    -1.11636
H      6.77706     0.92859    -2.67616
C     -0.64836    -0.39283    -2.79638
C     -1.81984    -0.50553    -3.71436
O      0.20232    -1.25711    -2.68529
O     -0.64223     0.72025    -2.08421
H      0.15647     0.74958    -1.50508
H     -2.61945    -1.00057    -3.16492
H     -2.15752     0.48174    -4.01248
H     -1.56034    -1.10881    -4.57899
C     -3.71381     1.60830     0.40662
C     -3.90754     1.31180    -1.04172
O     -3.32175     0.76632     1.21249
O     -3.98752     2.84187     0.75076
H     -2.57191     3.92580     5.62096
H     -4.10166     0.25508    -1.16168
H     -4.70769     1.92399    -1.44661
H     -2.97990     1.54948    -1.55962
C      1.54851     0.47513     0.57895
C      0.30474     0.23174     1.36256
O      1.55271     0.84998    -0.58251
O      2.65629     0.24781     1.25329
H      3.44929     0.40154     0.69187
H     -0.54925     0.50799     0.75737
H      0.23362    -0.81953     1.62806
H      0.31134     0.81857     2.27697
C     -2.32325    -2.37385    -0.06764
C     -1.50575    -3.60719    -0.28620
O     -2.84414    -1.73523    -0.95473
O     -2.42404    -2.03274     1.22120
H     -2.91775    -1.20068     1.26703
H     -0.85972    -3.79964     0.56212
H     -2.17968    -4.45123    -0.43547
H     -0.90900    -3.47360    -1.18093
C     -2.68170     2.56382     3.99246
C     -2.14567     2.97284     5.33284
O     -3.38813     3.28517     3.30767
O     -2.30329     1.35252     3.62564
H     -2.71299     1.11520     2.76160
H     -3.78713     3.00330     1.71260
H     -2.38126     2.20939     6.06943
H     -1.06256     3.05451     5.27510
C      2.48983    -2.45667    -0.57595
C      3.82620    -2.94846    -0.10578
O      1.45179    -2.65070     0.00364
O      2.56634    -1.72060    -1.69669
H      1.64877    -1.56244    -2.05048
H      4.40197    -3.35788    -0.93337
H      4.37978    -2.10515     0.30569
H      3.69079    -3.69985     0.66589
