 72
-2063.3226287814828
C      2.34340     0.79543     0.85328
C      3.47201    -0.04462     1.37985
O      1.35876     0.34877     0.31547
O      2.53703     2.10415     1.03981
H      1.72378     2.56501     0.78243
H      3.48114    -0.00816     2.46666
H      3.32188    -1.07155     1.07109
H      4.43006     0.32285     1.02105
C      0.08699     3.12158    -1.22420
C     -0.21876     1.89005    -1.99568
O     -0.00210     3.18026     0.00944
O      0.45531     4.15228    -1.93395
H      0.61915     4.95910    -1.37138
H     -0.04301     2.04508    -3.05257
H      0.39650     1.07136    -1.62514
H     -1.25967     1.62748    -1.81948
C      0.84698     6.46796     0.69879
C      1.18123     7.73969     1.41347
O      0.90577     6.35577    -0.51422
O      0.48950     5.47986     1.50015
H      0.29432     4.67158     0.98320
H      2.24321     7.93861     1.29092
H      0.64049     8.56017     0.95067
H      0.93630     7.66022     2.46606
C      0.79248    -2.24091     2.80356
C     -0.59928    -1.78733     2.52064
O      1.36387    -3.08925     2.13121
O      1.36214    -1.62796     3.81941
H      2.28190    -1.96854     3.96077
H     -1.06321    -2.43320     1.79041
H     -1.17750    -1.76109     3.44027
H     -0.55070    -0.77732     2.12343
C      0.44146    -2.43693    -2.55741
C      1.49098    -2.81007    -1.55414
O      0.46994    -1.38877    -3.18178
O     -0.49919    -3.35141    -2.69939
H     -1.13908    -3.08249    -3.40534
H      2.16790    -3.52714    -2.01693
H      2.03513    -1.91648    -1.27396
H      1.03534    -3.27077    -0.68535
C     -2.55211    -1.32210    -4.58164
C     -3.89382    -0.85374    -5.06089
O     -2.24753    -2.50326    -4.52339
O     -1.75091    -0.33899    -4.22434
H     -0.91179    -0.71223    -3.85981
H     -4.51380    -0.65317    -4.18864
H     -3.78857     0.06781    -5.62570
H     -4.36003    -1.62908    -5.65937
C     -3.00683     1.07649     0.90497
C     -4.13728     0.69740     1.80459
O     -3.00771     0.94335    -0.30698
O     -1.96093     1.57500     1.54888
H     -1.28786     1.84709     0.90529
H     -4.03828     1.18629     2.76801
H     -5.07943     0.95447     1.32875
H     -4.10643    -0.38344     1.93065
C     -3.33856    -2.35813    -0.57451
C     -3.60273    -3.73901    -1.09754
O     -3.17171    -2.08882     0.59295
O     -3.32192    -1.44104    -1.54407
H     -3.15958    -0.55937    -1.14638
H     -2.93662    -3.96275    -1.92752
H     -3.46277    -4.46177    -0.29975
H     -4.62715    -3.79734    -1.46367
C      4.41292    -3.31805     3.38989
C      5.83347    -3.74184     3.62400
O      3.86685    -2.48173     4.09455
O      3.83157    -3.91008     2.37098
H      2.88632    -3.61026     2.27340
H      6.14668    -4.45080     2.86681
H      6.46910    -2.86005     3.61215
H      5.90827    -4.18439     4.61425
