 72
-2063.3293144346344
C      2.57639    -4.04223     2.19938
C      3.91052    -4.45505     1.67348
O      1.54654    -4.10988     1.52860
O      2.58886    -3.58933     3.42793
H      1.67960    -3.31273     3.72986
H      4.63031    -4.51086     2.48211
H      3.81703    -5.40846     1.16032
H      4.21875    -3.70593     0.94488
C     -0.22372     1.71023    -3.95499
C     -1.69787     1.86968    -3.75033
O      0.60454     2.30794    -3.27283
O      0.10257     0.87751    -4.90665
H      1.09321     0.80309    -5.00423
H     -2.06900     1.02773    -3.16845
H     -1.88926     2.78152    -3.19879
H     -2.21574     1.87896    -4.70608
C     -2.88918    -0.46280    -0.24915
C     -1.91150    -1.43552    -0.80833
O     -3.57979     0.26289    -0.95105
O     -2.94693    -0.44609     1.06512
H     -3.52211     0.29848     1.38248
H     -2.13677    -1.62103    -1.85348
H     -0.91516    -1.00867    -0.73451
H     -1.92558    -2.35516    -0.23526
C     -0.77659    -2.66295     3.47358
C     -1.99670    -1.90532     3.88988
O      0.21037    -2.78248     4.18277
O     -0.86481    -3.20092     2.27100
H     -0.00409    -3.60785     2.01486
H     -1.83716    -0.84753     3.69239
H     -2.85607    -2.23243     3.31652
H     -2.15666    -2.03716     4.95581
C     -5.31235     2.11428     1.13961
C     -6.26420     3.12799     1.70624
O     -4.45287     1.58015     1.82906
O     -5.47899     1.86329    -0.13731
H     -4.78536     1.22598    -0.46685
H     -6.80550     2.68377     2.53832
H     -5.68887     3.96358     2.09989
H     -6.95263     3.46858     0.94175
C      2.37551    -1.52010    -0.67410
C      2.28623    -0.29600    -1.52788
O      3.35457    -1.84035    -0.04393
O      1.24573    -2.23850    -0.68159
H      1.34151    -2.95649    -0.03629
H      1.95386    -0.55127    -2.53118
H      1.56569     0.39871    -1.10187
H      3.25978     0.17476    -1.57467
C      3.56723     1.31516    -4.61369
C      5.03046     1.17169    -4.89038
O      2.71183     0.61203    -5.12956
O      3.29066     2.26994    -3.74818
H      2.32072     2.33116    -3.60551
H      5.19601     0.37693    -5.60740
H      5.42399     2.11222    -5.26912
H      5.54965     0.95051    -3.96036
C     -0.64463     2.81361     0.11150
C     -1.12536     3.56060     1.31264
O     -0.51892     1.60499     0.04922
O     -0.38009     3.60178    -0.92417
H     -0.07517     3.06143    -1.67736
H     -0.43404     3.36366     2.12882
H     -1.16253     4.62420     1.09508
H     -2.10909     3.19327     1.59603
C      1.51610     0.73443     2.46673
C      2.62550     0.03697     3.19832
O      1.32629     1.92465     2.46883
O      0.73197    -0.12854     1.79457
H      0.13833     0.40414     1.22710
H      3.28839    -0.45029     2.48633
H      3.18566     0.76560     3.77730
H      2.21796    -0.72651     3.85609
