 80
-2292.5864752848915
C      2.65600     3.82207    -2.04653
C      2.12554     4.37511    -3.32727
O      3.69154     3.18044    -1.96992
O      1.89185     4.07137    -0.99555
H      2.24277     3.61372    -0.20047
H      1.42445     3.64771    -3.73634
H      1.59914     5.30794    -3.15010
H      2.94055     4.50713    -4.03124
C     -0.23216     0.89177    -0.15304
C     -0.65999     2.15040    -0.83027
O     -0.94818     0.18334     0.50809
O      1.05983     0.60892    -0.36850
H      1.30975    -0.22016     0.08690
H     -0.25310     2.99788    -0.28020
H     -0.25128     2.17603    -1.83724
H     -1.74257     2.19735    -0.83575
C     -4.20867    -0.00941    -1.43968
C     -4.41447     0.68796    -2.74890
O     -3.92319    -1.20603    -1.38641
O     -4.34666     0.74294    -0.38577
H     -4.18688     0.23081     0.46228
H     -5.13455     0.12028    -3.33353
H     -4.75052     1.70930    -2.60345
H     -3.47380     0.66840    -3.29747
C      0.01057     1.71806     3.24840
C     -1.41524     1.60705     3.68541
O      0.89030     0.94732     3.58813
O      0.23413     2.74532     2.44528
H      1.14347     2.71038     2.09723
H     -1.47501     0.99249     4.57732
H     -1.83963     2.59119     3.86843
H     -1.98369     1.13253     2.88744
C     -3.22667    -1.57456     1.90627
C     -2.56584    -1.99890     3.17690
O     -3.89118    -0.55335     1.81714
O     -3.05076    -2.41026     0.90301
H     -3.38421    -2.01289     0.07083
H     -2.02856    -2.92697     3.02597
H     -1.87198    -1.22803     3.49695
H     -3.31996    -2.10673     3.95354
C      0.74165    -2.65031     0.94040
C      0.17028    -2.70603    -0.44551
O      0.44401    -3.39773     1.83501
O      1.64252    -1.65400     1.09907
H      1.97267    -1.66514     2.03241
H     -0.30944    -1.75682    -0.66765
H      0.96614    -2.85795    -1.17271
H     -0.56357    -3.50175    -0.50345
C      1.52399     0.23737    -3.45671
C      2.98452     0.00412    -3.20445
O      1.01578     1.33218    -3.52603
O      0.85378    -0.91245    -3.59015
H     -0.08950    -0.74868    -3.77461
H      3.52611     0.93014    -3.35900
H      3.11351    -0.30434    -2.16873
H      3.36706    -0.78824    -3.84501
C      1.45354    -2.14001     4.43241
C      1.35219    -3.53144     4.97435
O      2.32241    -1.77862     3.65671
O      0.49921    -1.32921     4.86006
H      0.62526    -0.44514     4.44138
H      0.95502    -4.17020     4.18784
H      2.34538    -3.89191     5.22977
H      0.69586    -3.55942     5.83725
C      3.56577     1.72014     1.06785
C      3.87971     0.80050     2.19729
O      2.77445     2.65699     1.16729
O      4.23058     1.46066    -0.02839
H      4.02972     2.11752    -0.74456
H      3.14832     0.92202     2.98351
H      3.89290    -0.22931     1.85724
H      4.87278     1.04660     2.57457
C     -2.39285    -2.02053    -4.47092
C     -1.95207    -2.86328    -5.62664
O     -1.85092    -0.98232    -4.14081
O     -3.46328    -2.49986    -3.84919
H     -3.65018    -1.95330    -3.05611
H     -2.18979    -2.33624    -6.54908
H     -0.87387    -2.98662    -5.58769
H     -2.45302    -3.82415    -5.61490
