 72
-2063.3194627557887
C      3.32895    -3.63938    -1.54983
C      4.81306    -3.52032    -1.66337
O      2.75312    -4.15642    -0.61374
O      2.69475    -3.09100    -2.58414
H      1.73113    -3.11032    -2.43583
H      5.29421    -4.29073    -1.07106
H      5.11719    -3.57165    -2.70382
H      5.09382    -2.54443    -1.26675
C     -0.69147     4.15837     0.70202
C      0.78084     4.28725     0.87785
O     -1.20783     3.68081    -0.30759
O     -1.39814     4.60795     1.70630
H     -2.37073     4.47075     1.54586
H      1.06855     4.04577     1.89524
H      1.29771     3.63754     0.18778
H      1.05630     5.32279     0.68210
C     -4.42975     3.34256     0.46642
C     -5.77558     2.71067     0.58047
O     -3.94376     4.04793     1.33711
O     -3.79997     3.05871    -0.66001
H     -2.87319     3.37959    -0.61254
H     -6.38938     3.28227     1.26814
H     -6.23994     2.63973    -0.39796
H     -5.63860     1.70590     0.97729
C     -0.30066    -4.62769    -1.34890
C      0.21986    -6.02250    -1.44474
O     -0.07808    -3.76926    -2.20107
O     -0.99207    -4.39037    -0.26440
H     -1.36546    -3.47779    -0.26039
H      1.24515    -6.00765    -1.07869
H     -0.37462    -6.68908    -0.83039
H      0.23004    -6.34083    -2.48256
C     -2.48690    -1.47549    -1.41732
C     -3.51330    -0.40430    -1.54492
O     -2.10676    -1.93414    -0.34441
O     -2.01979    -1.91186    -2.56914
H     -1.28984    -2.56529    -2.44594
H     -3.03216     0.49595    -1.91921
H     -4.27835    -0.70585    -2.25766
H     -3.94141    -0.19757    -0.57179
C     -2.61709     0.51249     2.26979
C     -2.31744     1.46146     3.39214
O     -3.63402     0.52415     1.61628
O     -1.61454    -0.34391     2.04305
H     -1.85645    -0.90763     1.29311
H     -3.14651     2.14882     3.50395
H     -2.14516     0.91399     4.31759
H     -1.41357     2.01639     3.15684
C      2.24407    -1.23308     1.33578
C      1.91214    -0.28256     2.44153
O      3.05158    -1.02707     0.45995
O      1.52669    -2.36544     1.39066
H      1.88283    -2.98269     0.73074
H      1.99052     0.73738     2.08254
H      0.92043    -0.49075     2.82539
H      2.64235    -0.40397     3.24265
C      0.56640     0.77559    -1.26807
C      0.78883    -0.64849    -1.67840
O      1.44984     1.52945    -0.92981
O     -0.71813     1.14873    -1.30298
H     -0.79549     2.07803    -1.00676
H      0.39799    -0.81773    -2.67874
H      1.84699    -0.85381    -1.62688
H      0.27204    -1.32421    -1.00400
C      4.25306     2.43141     0.94705
C      5.60528     3.01421     1.26553
O      3.29286     2.50378     1.67776
O      4.24037     1.82608    -0.24178
H      3.36845     1.41634    -0.37883
H      5.89946     3.71201     0.48389
H      5.56629     3.52006     2.22353
H      6.34853     2.21933     1.29507
