 48
-1375.5370155001224
C      4.31223     2.14412     2.20237
C      4.66123     3.07237     3.33130
O      3.97797     2.49147     1.09684
O      4.42992     0.85597     2.56431
H      4.14281     0.29709     1.81972
H      5.66959     2.86222     3.68292
H      4.58874     4.09868     2.99057
H      3.98249     2.90879     4.16657
C      4.09779    -0.96509    -0.46637
C      5.47594    -0.38913    -0.54044
O      3.45786    -0.97963     0.58329
O      3.63163    -1.42337    -1.59464
H      2.69513    -1.76386    -1.49547
H      6.01640    -0.65428     0.36315
H      5.99180    -0.74153    -1.42762
H      5.38736     0.69577    -0.56742
C     -4.11544     2.07423     0.62893
C     -5.47205     2.27467     1.23392
O     -3.80006     1.05068     0.03134
O     -3.30437     3.08548     0.79621
H     -2.40865     2.89742     0.39646
H     -5.36700     2.48419     2.29509
H     -5.94685     3.13537     0.77000
H     -6.07164     1.38676     1.07991
C     -0.48756     1.46341    -0.52506
C      0.96120     1.22460    -0.79669
O     -0.94735     2.55656    -0.24453
O     -1.23031     0.37220    -0.61893
H     -2.16872     0.58437    -0.41511
H      1.35204     0.52641    -0.06232
H      1.07391     0.76151    -1.77316
H      1.51430     2.15327    -0.74385
C      0.53680    -2.43502    -0.32794
C     -0.78708    -3.11485    -0.30290
O      1.15460    -2.21719    -1.36069
O      0.99475    -2.09687     0.86347
H      1.89668    -1.71175     0.79073
H     -0.61994    -4.17327    -0.10142
H     -1.41777    -2.70648     0.47578
H     -1.27144    -3.00584    -1.26320
C     -4.54339    -2.20982    -1.54429
C     -5.14387    -3.15784    -2.54916
O     -3.84992    -2.54105    -0.61725
O     -4.87904    -0.93469    -1.80980
H     -4.47314    -0.35419    -1.14619
H     -6.22983    -3.12265    -2.48175
H     -4.86497    -2.85614    -3.55674
H     -4.79476    -4.16463    -2.34768
