 64
-1834.0669361392588
C     -4.36281    -1.28395    -1.18657
C     -5.02860    -2.19073    -2.17596
O     -3.88732    -1.69429    -0.14046
O     -4.34307    -0.01667    -1.54769
H     -3.82643     0.50797    -0.88952
H     -4.28912    -2.88438    -2.56703
H     -5.79204    -2.77475    -1.66686
H     -5.45976    -1.61014    -2.98292
C      2.54245     1.06223     3.00251
C      1.96337     0.88675     4.36402
O      2.21265     1.93272     2.21478
O      3.47138     0.16220     2.70656
H      3.74978     0.28203     1.78117
H      2.28548    -0.05415     4.79476
H      2.27247     1.71951     4.99145
H      0.88255     0.94852     4.29804
C      0.52187    -3.83311    -3.73513
C      0.89852    -5.24208    -4.09019
O     -0.63372    -3.51601    -3.48341
O      1.52794    -2.98948    -3.71721
H      1.21143    -2.07564    -3.48507
H      0.61910    -5.89822    -3.26909
H      0.32767    -5.55129    -4.96258
H      1.96215    -5.31243    -4.28656
C      3.35216     0.82878    -0.94934
C      3.88466     0.95389    -2.34014
O      3.78980     0.03930    -0.12512
O      2.35930     1.65409    -0.69557
H      2.01840     1.49593     0.20644
H      4.10648     1.99762    -2.54959
H      4.77456     0.34389    -2.44191
H      3.12271     0.62140    -3.04215
C     -2.43098     0.86445     1.28089
C     -1.49688     1.65857     2.13212
O     -2.80951     1.25244     0.18451
O     -2.79738    -0.28569     1.80195
H     -3.30049    -0.80921     1.12753
H     -1.71375     1.51198     3.18294
H     -0.48049     1.33508     1.92823
H     -1.58556     2.70099     1.85868
C      0.86402    -1.54643     0.67127
C     -0.27357    -2.51331     0.78949
O      0.73158    -0.34405     0.72891
O      2.03960    -2.14485     0.50110
H      2.73703    -1.46899     0.43439
H      0.06960    -3.53791     0.68641
H     -0.75793    -2.36795     1.75225
H     -1.00641    -2.27850     0.02406
C      0.00502     4.20581     3.89988
C     -0.77622     5.47220     4.11974
O     -0.05019     3.23287     4.61107
O      0.77084     4.28860     2.80530
H      1.27508     3.46171     2.69605
H     -1.42199     5.65609     3.26297
H     -1.37223     5.37832     5.01993
H     -0.09614     6.31731     4.20497
C     -0.49652    -0.28826    -2.79868
C     -0.87236     1.11943    -2.48424
O      0.63458    -0.60753    -3.13618
O     -1.47483    -1.15699    -2.66952
H     -1.17550    -2.06008    -2.96127
H     -0.48199     1.78193    -3.25257
H     -1.94507     1.22610    -2.38142
H     -0.40269     1.38885    -1.54057
