 56
-1604.805540115923
C      5.33411     0.56660    -1.45117
C      6.82751     0.46705    -1.57590
O      4.58550    -0.25136    -1.96691
O      4.91823     1.58570    -0.73367
H      3.92353     1.63033    -0.72822
H      7.30742     1.27049    -1.02897
H      7.14752    -0.49953    -1.19449
H      7.09743     0.50842    -2.62833
C     -2.51444    -1.57747    -3.33438
C     -2.66709    -1.52199    -4.82542
O     -2.02918    -2.54938    -2.77047
O     -2.93025    -0.50540    -2.70260
H     -2.89102    -0.64993    -1.72055
H     -1.70009    -1.70658    -5.28621
H     -3.33336    -2.32204    -5.13884
H     -3.06105    -0.56047    -5.13339
C     -0.10538     1.78141     2.42768
C      1.38124     1.86969     2.55870
O     -0.71610     2.20356     1.45553
O     -0.69129     1.19992     3.45285
H     -5.73647     2.46391     1.30426
H      1.77532     0.85678     2.53515
H      1.78863     2.44234     1.73448
H      1.63644     2.32087     3.51524
C      1.53663     0.91966    -1.35409
C      0.06732     1.17029    -1.41370
O      2.31678     1.65383    -0.76352
O      1.92578    -0.17012    -1.97897
H      2.91527    -0.22101    -1.98761
H     -0.14143     2.19810    -1.14220
H     -0.30819     0.93169    -2.40107
H     -0.42269     0.52655    -0.68644
C     -2.13840    -1.80557     0.43931
C     -2.04994    -1.93307     1.91965
O     -2.81495    -0.95981    -0.11449
O     -1.39104    -2.67182    -0.23830
H     -1.61801    -2.64002    -1.21276
H     -1.14397    -1.41387     2.22905
H     -2.91096    -1.45447     2.37089
H     -1.97284    -2.97560     2.21642
C     -3.90504     1.79786     2.18353
C     -5.40249     1.80836     2.09963
O     -3.31607     1.18076     3.06066
O     -3.29932     2.47849     1.24056
H     -2.31056     2.37795     1.32150
H     -1.67449     1.20016     3.33214
H     -5.73771     0.79035     1.91336
H     -5.81279     2.12064     3.05657
C      1.77201    -1.67792     0.89190
C      3.22031    -1.44702     1.19135
O      0.88262    -0.95224     1.27262
O      1.56141    -2.76573     0.15402
H      0.60717    -2.83417    -0.00912
H      3.37531    -1.42433     2.26694
H      3.84049    -2.20920     0.73450
H      3.50106    -0.47198     0.80553
