 56
-1604.8071564603847
C      4.45214     2.70626    -1.93030
C      4.24646     3.84249    -2.89202
O      5.34328     2.63427    -1.12089
O      3.51426     1.75829    -2.08409
H      3.66490     1.05640    -1.43032
H      3.27463     4.30059    -2.71754
H      5.03332     4.57547    -2.75612
H      4.25429     3.46703    -3.91355
C     -5.78766    -1.81365    -1.91179
C     -7.13474    -2.45753    -2.07685
O     -4.77081    -2.47423    -1.76135
O     -5.80882    -0.50000    -1.94417
H     -4.89637    -0.12300    -1.82376
H     -7.90637    -1.70374    -2.18298
H     -7.11102    -3.10309    -2.95147
H     -7.33247    -3.08692    -1.21258
C      0.90909     0.70816     2.43095
C      2.25268     0.41609     3.01820
O      0.69316     1.68146     1.73076
O     -0.00181    -0.19013     2.73340
H     -4.06421     3.37028     1.75359
H      2.99452     1.06340     2.56583
H      2.22285     0.58958     4.09229
H      2.51034    -0.62393     2.85418
C      1.06910    -2.53042     0.81521
C     -0.23487    -3.24161     0.94103
O      2.08243    -2.87025     1.40306
O      1.03015    -1.47272     0.02384
H      1.92875    -1.07319    -0.06371
H     -0.71113    -3.33596    -0.02871
H     -0.07779    -4.21442     1.39562
H     -0.88058    -2.64081     1.57763
C     -2.35795    -0.13875    -1.50185
C     -1.01844     0.49909    -1.35983
O     -3.39010     0.50353    -1.63000
O     -2.32692    -1.45442    -1.45607
H     -3.23620    -1.83799    -1.57720
H     -0.64709     0.31783    -0.35698
H     -0.29929     0.05364    -2.03583
H     -1.10570     1.56405    -1.52641
C     -2.58162     1.85051     1.57610
C     -3.98278     2.34296     1.41106
O     -2.31577     0.69185     1.86413
O     -1.67337     2.76857     1.34109
H     -0.76473     2.39328     1.48290
H     -0.89541     0.10190     2.40685
H     -4.22152     2.31493     0.34947
H     -4.66805     1.69322     1.94440
C      4.49884    -0.84396     0.34736
C      5.83398    -0.19720     0.18603
O      3.48968    -0.44519    -0.23185
O      4.48423    -1.85691     1.17363
H      3.57241    -2.25818     1.24081
H      5.82510     0.76134     0.70151
H      6.61422    -0.83305     0.59150
H      6.00538     0.02290    -0.86320
