 32
-917.0179881252411
C      0.40394    -2.47173     1.39328
C      0.61384    -3.44120     2.52282
O      0.33180    -2.77807     0.22787
O      0.30198    -1.21072     1.83361
H      0.18015    -0.62138     1.07056
H     -0.21921    -3.37913     3.22096
H      0.69261    -4.44718     2.12655
H      1.52015    -3.18200     3.06735
C     -2.89862     2.13894     1.01575
C     -3.68015     3.10685     1.84839
O     -3.42760     1.30869     0.29455
O     -1.58962     2.27639     1.12638
H     -1.12426     1.61677     0.57081
H     -4.03133     3.90968     1.20367
H     -4.54964     2.60628     2.26180
H     -3.05560     3.52074     2.63182
C      3.32664     0.66709    -1.38588
C      4.79583     0.56972    -1.08168
O      2.85384     0.95320    -2.45676
O      2.57874     0.38567    -0.30277
H      1.64220     0.45741    -0.54412
H      5.36677     0.81419    -1.97043
H      5.05222     1.25229    -0.27320
H      5.03648    -0.43897    -0.74954
C     -0.87502    -0.22033    -1.35933
C     -0.15008    -1.00745    -2.39135
O     -0.29806     0.40999    -0.46394
O     -2.17276    -0.24169    -1.45534
H     -2.61681     0.33627    -0.77116
H      0.23141    -1.90278    -1.90071
H     -0.82526    -1.27979    -3.19598
H      0.69457    -0.42778    -2.75452
