 80
-2292.581377495494
C      1.76029     3.20054     0.51116
C      0.50810     3.76343     1.09416
O      2.73913     2.91012     1.17778
O      1.71187     3.02884    -0.79834
H      2.52462     2.55659    -1.10348
H      0.09384     4.52792     0.44805
H     -0.21339     2.95199     1.16496
H      0.71051     4.14551     2.08790
C     -4.21193     1.29517    -0.32644
C     -4.81862     0.29064     0.58913
O     -3.81630     2.39787     0.05214
O     -4.13099     0.91323    -1.57497
H     -3.68795     1.61056    -2.12973
H     -4.66599    -0.71189     0.21143
H     -4.38014     0.39531     1.57583
H     -5.88809     0.49291     0.65090
C      0.71187    -5.82621    -2.54201
C      1.12109    -7.20877    -2.95282
O      0.52877    -4.92067    -3.34102
O      0.58446    -5.68294    -1.23752
H      0.26427    -4.77939    -1.00821
H      2.04607    -7.47848    -2.44807
H      0.35890    -7.92070    -2.64313
H      1.25203    -7.24737    -4.02707
C     -2.36460    -2.49369     2.39077
C     -2.59748    -2.24696     3.85047
O     -3.19200    -2.33208     1.52654
O     -1.10864    -2.89321     2.14136
H     -0.99773    -2.98404     1.18481
H     -3.66168    -2.28787     4.06124
H     -2.05944    -2.97111     4.45612
H     -2.23214    -1.25234     4.09909
C     -0.47532    -2.29677    -1.49241
C     -1.02947    -0.96584    -1.11443
O     -0.25023    -3.17619    -0.66265
O     -0.24727    -2.46117    -2.76903
H      0.02897    -3.39200    -2.98082
H     -1.96926    -1.12448    -0.59077
H     -0.35723    -0.46941    -0.42294
H     -1.17946    -0.35326    -1.99603
C     -2.57183     2.49048     3.39959
C     -2.03607     3.01937     4.69065
O     -2.63302     1.30861     3.11124
O     -2.97954     3.44235     2.56840
H     -3.32925     3.04198     1.75225
H     -0.99095     2.72850     4.77289
H     -2.13886     4.09777     4.72649
H     -2.57096     2.55451     5.51606
C      0.49356     0.39919     2.79444
C      1.72296    -0.40932     2.51101
O      0.37819     1.15865     3.72283
O     -0.48085     0.20039     1.88678
H     -1.30299     0.56599     2.27064
H      1.74643    -0.71285     1.47150
H      2.60274     0.17350     2.76553
H      1.69706    -1.30496     3.13236
C     -1.93028     3.42620    -2.50907
C     -0.81098     4.00484    -3.31664
O     -2.81126     2.72561    -2.97682
O     -1.86478     3.74576    -1.22455
H     -2.59886     3.31697    -0.72563
H     -0.70175     5.05892    -3.07764
H      0.11483     3.50295    -3.04950
H     -1.01298     3.86696    -4.37246
C      4.99418     1.71599    -0.91072
C      6.27062     1.27501    -1.54320
O      3.90962     1.67240    -1.49269
O      5.10558     2.14825     0.31719
H      4.22519     2.44037     0.67798
H      6.31022     1.63321    -2.56835
H      7.11465     1.63321    -0.96545
H      6.26658     0.18661    -1.56501
C      3.54468    -1.74964    -1.27956
C      3.04980    -3.14209    -1.52719
O      4.69716    -1.46528    -1.07668
O      2.55343    -0.83822    -1.30210
H      2.94757     0.05308    -1.29203
H      3.88540    -3.83400    -1.51737
H      2.32776    -3.42427    -0.76765
H      2.54208    -3.19425    -2.48555
