 80
-2292.5798822399756
C      0.84543     0.68075    -1.51711
C     -0.59235     0.44660    -1.19792
O      1.54121     1.47931    -0.90975
O      1.31725    -0.05046    -2.50658
H      2.23158     0.23068    -2.73663
H     -1.02501     1.34789    -0.78711
H     -1.14155     0.11681    -2.07237
H     -0.66288    -0.33792    -0.45254
C     -4.45657     1.96748    -0.89592
C     -4.89748     3.31111    -1.37893
O     -4.91430     1.45358     0.12226
O     -3.55015     1.39445    -1.64577
H     -3.31535     0.48301    -1.31374
H     -5.97008     3.28656    -1.55570
H     -4.69983     4.04038    -0.59822
H     -4.36580     3.56640    -2.28830
C      0.46618    -4.45337    -1.30089
C     -0.42929    -5.34507    -2.10622
O      0.10465    -3.37038    -0.85957
O      1.66983    -4.94756    -1.13013
H      2.24112    -4.30843    -0.63548
H     -1.46039    -5.03969    -1.97689
H     -0.15583    -5.25588    -3.15601
H     -0.28978    -6.37958    -1.80609
C     -1.21281    -0.71537     2.60531
C     -2.17070     0.16180     3.35112
O     -1.46827    -1.82628     2.21291
O     -0.02076    -0.12968     2.39418
H      0.52378    -0.72375     1.84867
H     -2.31372     1.08725     2.80334
H     -3.12084    -0.34844     3.45729
H     -1.76868     0.42912     4.32498
C      2.76816    -2.05382     0.54800
C      3.68030    -0.94110     0.94003
O      3.13973    -3.15190     0.18387
O      1.48066    -1.73259     0.63447
H      0.92418    -2.37990     0.12472
H      3.62959    -0.16352     0.18012
H      3.35215    -0.51186     1.88282
H      4.69941    -1.30065     1.00152
C     -4.23706     3.51759     2.67683
C     -4.14184     4.27650     3.95799
O     -3.70524     3.86377     1.63514
O     -4.94821     2.40112     2.77258
H     -4.98026     1.96909     1.90054
H     -4.38497     5.32096     3.77699
H     -4.80300     3.84141     4.69805
H     -3.10843     4.23035     4.29837
C     -0.52191     3.10433     2.47999
C      0.96336     2.90414     2.42177
O     -1.15021     3.20900     3.50708
O     -1.09481     3.13466     1.26674
H     -2.03578     3.38847     1.35701
H      1.30711     2.87839     1.39452
H      1.44749     3.71092     2.96965
H      1.20191     1.96600     2.91463
C     -3.75874    -1.69114     0.11065
C     -3.49003    -3.13157     0.40609
O     -3.20286    -1.07147    -0.78006
O     -4.66252    -1.14015     0.90321
H     -4.79822    -0.20369     0.64347
H     -2.48838    -3.38067     0.07228
H     -3.58355    -3.30122     1.47186
H     -4.21888    -3.74203    -0.12507
C      4.51484     1.53258    -2.36393
C      5.95044     1.80995    -2.66176
O      3.81369     0.82425    -3.08482
O      4.07405     2.08151    -1.26294
H      3.11091     1.88289    -1.11622
H      6.52843     0.99324    -2.23075
H      6.10505     1.81771    -3.73594
H      6.25925     2.74630    -2.20872
C      5.57353    -2.03517    -2.20368
C      6.09755    -3.43650    -2.10021
O      5.77886    -1.17857    -1.37575
O      4.83231    -1.84500    -3.30134
H      4.48390    -0.93710    -3.29427
H      6.07338    -3.92371    -3.06955
H      7.10700    -3.41875    -1.69739
H      5.46489    -3.98626    -1.40387
