 64
-1834.0645668751386
C     -1.68203    -1.58482     0.85478
C     -0.42790    -1.57055     1.65120
O     -1.83754    -2.25727    -0.16521
O     -2.63982    -0.81319     1.31483
H     -3.36578    -0.73025     0.65522
H     -0.03716    -2.57756     1.74695
H      0.29736    -0.98755     1.08392
H     -0.59878    -1.10462     2.61215
C      3.64678    -1.17363     1.38463
C      4.25267    -2.52460     1.57738
O      3.81297    -0.49952     0.37198
O      2.90722    -0.75710     2.38716
H      2.68086     0.19801     2.29244
H      4.53326    -2.66562     2.61648
H      3.49808    -3.26383     1.31085
H      5.10467    -2.63348     0.91458
C     -4.30872    -0.77895    -1.83376
C     -5.22834    -0.35801    -2.93203
O     -4.37580    -0.32230    -0.69551
O     -3.41372    -1.66718    -2.18955
H     -2.82606    -1.90704    -1.43127
H     -4.69734     0.35692    -3.55732
H     -5.49390    -1.21308    -3.54632
H     -6.11019     0.11383    -2.51400
C      2.83066     2.66218     1.35639
C      2.57549     4.12637     1.41738
O      2.46417     1.87622     2.22580
O      3.48689     2.26248     0.28692
H      3.60274     1.28708     0.29351
H      3.08497     4.63204     0.60575
H      1.49996     4.28445     1.36419
H      2.90227     4.50134     2.38329
C      1.41304    -3.76500    -0.98775
C      2.41573    -4.40479    -1.90021
O      1.64478    -3.40815     0.14518
O      0.23150    -3.59656    -1.58196
H     -0.38248    -3.16357    -0.96353
H      3.29458    -4.69023    -1.33271
H      1.98231    -5.26769    -2.40067
H      2.70038    -3.68100    -2.66360
C     -2.15079     2.23875    -1.56233
C     -1.01040     3.19873    -1.43040
O     -2.41199     1.62462    -2.56794
O     -2.85600     2.11693    -0.42490
H     -3.50159     1.39837    -0.52497
H     -0.09691     2.61655    -1.31900
H     -0.92817     3.79461    -2.33807
H     -1.13993     3.82360    -0.55376
C     -0.95630     2.55605     2.66541
C     -2.42124     2.40264     2.92980
O     -0.43737     3.55017     2.21384
O     -0.26491     1.44398     2.96405
H      0.66861     1.60129     2.74892
H     -2.83577     3.35528     3.24907
H     -2.90696     2.10151     2.00435
H     -2.59102     1.63382     3.67647
C      0.90669    -0.22002    -1.75947
C      0.01512    -0.35635    -2.95002
O      0.59267     0.29915    -0.71103
O      2.11372    -0.75492    -1.95166
H      2.64019    -0.60817    -1.14856
H      0.42799    -1.06074    -3.66541
H     -0.96725    -0.68144    -2.62545
H     -0.11613     0.61511    -3.41962
