 48
-1375.537883592087
C      0.12543    -2.19232     1.18361
C      1.38585    -3.00505     1.14426
O     -0.77192    -2.32785     1.97420
O      0.11339    -1.25004     0.21954
H     -0.72233    -0.76284     0.28314
H      1.61173    -3.30347     0.12371
H      2.21903    -2.40363     1.50148
H      1.28522    -3.87880     1.77867
C      5.25730    -2.93002     0.80557
C      6.11968    -4.04999     1.31001
O      4.94510    -1.98632     1.51774
O      4.86498    -3.06544    -0.44052
H      4.32513    -2.27968    -0.73187
H      5.64473    -4.49515     2.18073
H      6.26588    -4.79139     0.53355
H      7.07314    -3.64049     1.63431
C     -0.74950     3.48402    -1.30408
C     -0.51550     4.69450    -2.16376
O     -0.36192     3.35840    -0.16832
O     -1.44440     2.53205    -1.94651
H     -1.59916     1.80368    -1.32655
H     -0.07010     4.39642    -3.11116
H     -1.46693     5.17685    -2.38317
H      0.13513     5.38890    -1.64388
C     -2.38078     1.19380     1.16544
C     -1.30768     1.40777     2.17487
O     -2.19348     0.56228     0.11882
O     -3.53041     1.73267     1.45167
H     -4.24020     1.50013     0.78503
H     -1.72792     1.80849     3.09122
H     -0.80266     0.46259     2.35660
H     -0.59213     2.10931     1.74576
C      3.09438    -0.04328    -0.47057
C      2.29197     1.10348    -1.00185
O      3.41312    -0.99536    -1.16699
O      3.43000     0.07558     0.79493
H      4.01071    -0.67803     1.07762
H      1.98419     1.75235    -0.19094
H      2.90009     1.65608    -1.71706
H      1.42285     0.72249    -1.52911
C     -5.37183     0.36694    -1.19292
C     -6.54571     0.00451    -2.04701
O     -5.45763     1.13427    -0.24721
O     -4.24523    -0.21910    -1.55114
H     -3.51026     0.04358    -0.95684
H     -7.22169    -0.61431    -1.46152
H     -7.08199     0.90863    -2.31943
H     -6.21942    -0.53530    -2.92813
