 48
-1375.5453846754565
C     -1.34665    -0.97089     1.76436
C     -0.11827    -0.24317     2.20503
O     -1.32608    -1.84967     0.91497
O     -2.44812    -0.56028     2.35631
H     -3.24021    -0.98430     1.94018
H     -0.15712    -0.04086     3.27272
H      0.75685    -0.82855     1.95207
H     -0.08906     0.70587     1.67152
C      2.20146    -1.36894    -1.20245
C      1.01969    -1.89547    -1.94546
O      2.97340    -0.54885    -1.69520
O      2.33775    -1.82868     0.01335
H      3.18277    -1.50452     0.43779
H      0.48240    -1.05784    -2.38075
H      1.37200    -2.53786    -2.75207
H      0.38229    -2.45359    -1.26955
C      0.87052     2.34636    -1.07129
C      0.50371     3.77513    -0.82053
O      0.08970     1.41201    -1.08209
O      2.17364     2.18039    -1.29122
H      2.37561     1.24246    -1.44834
H     -0.04134     4.15183    -1.68518
H     -0.16830     3.82980     0.03133
H      1.39825     4.36703    -0.66181
C     -2.83827     2.01665     0.37091
C     -4.29358     2.10900     0.71305
O     -1.97805     2.72767     0.83098
O     -2.59364     1.03194    -0.50051
H     -1.64065     1.04826    -0.70073
H     -4.57208     1.23758     1.30321
H     -4.47622     3.01150     1.28692
H     -4.89532     2.10735    -0.19370
C      5.50345    -0.45326     0.53366
C      6.82321    -0.20120     1.19620
O      4.58206    -1.01418     1.10939
O      5.42873    -0.01983    -0.70732
H      4.53664    -0.19857    -1.08759
H      7.48847     0.32810     0.52440
H      6.65862     0.37337     2.10391
H      7.25764    -1.15355     1.48976
C     -4.48916    -1.87283    -0.11476
C     -5.70319    -1.92382    -0.99627
O     -4.55469    -1.52192     1.05399
O     -3.37763    -2.23301    -0.71675
H     -2.60075    -2.12097    -0.11093
H     -6.00823    -0.90367    -1.22283
H     -5.48150    -2.45127    -1.91688
H     -6.51828    -2.40132    -0.46018
