 48
-1375.547466854045
C     -0.11942     0.02913     2.18955
C     -1.19967     0.85666     2.80413
O      0.24871    -1.05148     2.58694
O      0.41342     0.61274     1.10449
H      1.21625     0.12837     0.84216
H     -0.86360     1.87624     2.96364
H     -2.04045     0.91170     2.11623
H     -1.51540     0.40445     3.73889
C      2.49545    -1.17182    -2.60275
C      2.32396    -0.99996    -4.07727
O      2.41935    -2.25273    -2.04387
O      2.73000    -0.04015    -1.95893
H      2.83075    -0.22192    -0.99435
H      1.36066    -0.52900    -4.26180
H      3.09931    -0.34714    -4.46919
H      2.34858    -1.96717    -4.56566
C     -1.08152     0.90049    -1.50921
C     -0.32953     2.18397    -1.62980
O     -2.18426     0.82760    -0.97298
O     -0.47344    -0.13837    -2.02357
H     -0.92971    -0.98983    -1.75995
H     -0.15838     2.56740    -0.62482
H      0.61327     2.02570    -2.13934
H     -0.94300     2.90361    -2.16875
C     -2.93328     3.95788     0.60938
C     -3.68461     5.23365     0.87604
O     -2.06063     3.51353     1.31494
O     -3.33967     3.36621    -0.52289
H     -2.85574     2.52454    -0.62992
H     -3.28779     5.70775     1.76627
H     -3.59447     5.90182     0.02178
H     -4.74215     5.01463     1.01259
C      3.05226    -1.71718     1.15715
C      3.35302    -1.91571     2.60459
O      2.90234    -0.60130     0.65587
O      2.95680    -2.81147     0.45568
H      2.75349    -2.61108    -0.50132
H      2.43036    -1.75183     3.15919
H      3.71330    -2.92370     2.77521
H      4.07913    -1.17494     2.92742
C     -1.97548    -2.39004    -0.02527
C     -1.88879    -3.59809     0.85173
O     -1.54952    -2.34664    -1.16942
O     -2.55714    -1.35960     0.55976
H     -2.52570    -0.57364    -0.02877
H     -2.88176    -3.86228     1.21084
H     -1.45845    -4.42536     0.29857
H     -1.26898    -3.35614     1.71223
