 64
-1834.0620862973883
C     -5.27847    -2.42703    -1.62758
C     -6.62668    -3.06257    -1.80326
O     -5.13608    -1.36587    -1.03826
O     -4.28622    -3.10704    -2.15738
H     -3.42066    -2.65874    -1.98290
H     -6.54536    -3.97200    -2.38722
H     -7.04246    -3.27787    -0.82180
H     -7.29091    -2.35247    -2.28915
C      3.04812     3.65663    -0.00373
C      2.75753     5.11840    -0.05645
O      2.56238     2.85691    -0.80241
O      3.84208     3.28764     0.96951
H      4.05238     2.31441     0.90294
H      1.74316     5.27360     0.31239
H      3.46142     5.67117     0.55622
H      2.78269     5.45358    -1.08958
C      1.22242    -2.84491    -2.00177
C      0.78845    -3.78231    -3.08447
O      1.17241    -3.09645    -0.81318
O      1.67496    -1.69134    -2.47997
H      1.91436    -1.08183    -1.75311
H      1.30973    -3.55195    -4.00799
H      0.96356    -4.80882    -2.77718
H     -0.28170    -3.64081    -3.23448
C      3.55543    -0.09719     0.28263
C      3.52007    -1.53247     0.66953
O      4.32085     0.72305     0.74879
O      2.66459     0.23294    -0.65151
H      2.61940     1.21776    -0.74373
H      4.34140    -1.75823     1.34117
H      2.56912    -1.74947     1.15142
H      3.56948    -2.15492    -0.22195
C     -1.84259    -0.83741    -1.04995
C     -0.50588    -0.23351    -0.78002
O     -1.98463    -1.89629    -1.64078
O     -2.84864    -0.11467    -0.60324
H     -3.71880    -0.56498    -0.77719
H     -0.63521     0.59490    -0.09397
H      0.19003    -0.95578    -0.37707
H     -0.09466     0.13140    -1.71792
C      0.50530     1.63851     2.66850
C      0.98756     2.89566     3.32894
O     -0.63001     1.45024     2.29325
O      1.48584     0.74104     2.52848
H      1.09921    -0.10101     2.22169
H      0.88918     2.79396     4.41071
H      2.03247     3.05288     3.08604
H      0.37866     3.72961     2.99563
C     -0.93138     3.58816    -0.19294
C     -2.30063     3.07154     0.10763
O     -0.39916     4.51685     0.36873
O     -0.31167     2.88766    -1.16163
H      0.60088     3.20768    -1.22092
H     -2.71542     2.55024    -0.74624
H     -2.21514     2.36868     0.93579
H     -2.93446     3.89954     0.41198
C     -0.51401    -2.38621     1.91764
C     -1.59741    -2.14007     2.92334
O      0.48393    -1.69837     1.80409
O     -0.75171    -3.44009     1.15855
H     -0.07957    -3.46860     0.45339
H     -1.74334    -1.07033     3.04263
H     -2.51679    -2.62581     2.61307
H     -1.28061    -2.54919     3.88268
