 32
-917.0156520824879
C     -0.99586    -2.88504     2.06040
C     -0.73006    -2.58565     0.61550
O     -1.81048    -2.33330     2.75582
O     -0.20060    -3.86489     2.53226
H     -0.43258    -3.98622     3.46140
H      0.19561    -2.02028     0.52878
H     -0.61987    -3.49833     0.03542
H     -1.54273    -1.98616     0.22487
C     -2.17891     0.67778     1.70622
C     -2.83553     0.72061     3.04093
O     -2.76735     0.42605     0.66603
O     -0.88170     0.92413     1.74613
H     -0.51155     0.91203     0.83785
H     -2.72585    -0.26273     3.49493
H     -2.34200     1.45430     3.67016
H     -3.89132     0.94120     2.92508
C      3.55177     1.73505    -2.03589
C      5.02559     1.98435    -1.88304
O      2.93378     1.93123    -3.05340
O      3.00026     1.25924    -0.91045
H      2.04475     1.13450    -1.04525
H      5.56359     1.32146    -2.55778
H      5.24226     3.00489    -2.18969
H      5.34367     1.81631    -0.86024
C     -0.53522     0.68667    -1.81850
C      0.02528     0.74166    -3.20101
O      0.16467     0.80174    -0.81444
O     -1.82878     0.50406    -1.76940
H     -2.16909     0.49812    -0.82835
H     -0.71432     0.40858    -3.92108
H      0.33241     1.76221    -3.41560
H      0.92633     0.13765    -3.24482
