 64
-1834.0621126098872
C     -5.26988    -2.39551    -1.67005
C     -6.62258    -2.99944    -1.90941
O     -5.12850    -1.35485    -1.04487
O     -4.27266    -3.07689    -2.18811
H     -3.40707    -2.64249    -1.98024
H     -7.23442    -2.28473    -2.45423
H     -6.53338    -3.92488    -2.46636
H     -7.10405    -3.17545    -0.95082
C      3.03307     3.66783    -0.02502
C      2.73665     5.12854    -0.08249
O      2.54025     2.86061    -0.81168
O      3.84131     3.30870     0.94031
H      4.05507     2.33625     0.87564
H      2.74646     5.45728    -1.11802
H      1.72737     5.28383     0.30041
H      3.44786     5.68727     0.51647
C      1.20791    -2.87824    -1.93841
C      0.70767    -3.82009    -2.98554
O      1.22846    -3.13143    -0.74821
O      1.63650    -1.72641    -2.43685
H      1.89696    -1.11155    -1.72142
H      1.09341    -4.81824    -2.79290
H     -0.37893    -3.85478    -2.91685
H      1.00141    -3.47130    -3.96956
C      3.56847    -0.08219     0.27066
C      3.54919    -1.51331     0.67055
O      4.33163     0.74854     0.72149
O      2.66597     0.23231    -0.65879
H      2.61201     1.21628    -0.75369
H      4.38299    -1.72846     1.32998
H      2.60774    -1.73180     1.17033
H      3.58676    -2.14306    -0.21612
C     -1.83621    -0.83592    -1.02237
C     -0.50073    -0.22555    -0.76246
O     -1.97668    -1.90437    -1.59603
O     -2.84304    -0.10758    -0.58811
H     -3.71334    -0.55795    -0.76283
H     -0.09074     0.12386    -1.70729
H     -0.63069     0.61317    -0.08947
H      0.19663    -0.93936    -0.34656
C      0.52232     1.63359     2.67525
C      1.00775     2.89460     3.32649
O     -0.61652     1.43888     2.31436
O      1.50441     0.73932     2.52582
H      1.11650    -0.10590     2.22913
H      0.92846     2.79341     4.40990
H      2.04757     3.05802     3.06626
H      0.38861     3.72489     3.00300
C     -0.94970     3.59714    -0.17110
C     -2.31010     3.06922     0.14931
O     -0.41941     4.53329     0.37987
O     -0.33516     2.89772    -1.14414
H      0.57498     3.22281    -1.21414
H     -2.73163     2.54207    -0.69740
H     -2.20694     2.36908     0.97785
H     -2.94715     3.89222     0.46042
C     -0.46902    -2.42319     1.90180
C     -1.56558    -2.20630     2.90068
O      0.51893    -1.71543     1.81438
O     -0.68213    -3.46371     1.11905
H      0.00485    -3.47206     0.42321
H     -1.72289    -1.14026     3.03789
H     -2.47786    -2.69348     2.57258
H     -1.25519    -2.62967     3.85568
