 64
-1834.068727447138
C     -4.16621    -1.63099     3.23209
C     -4.50631    -2.37594     4.48327
O     -3.43588    -2.08278     2.36100
O     -4.70930    -0.43545     3.17232
H     -4.41478     0.04756     2.35588
H     -3.90088    -1.96157     5.28779
H     -5.55335    -2.23329     4.73634
H     -4.27189    -3.42734     4.36282
C      0.92882    -2.15001     2.20807
C     -0.00975    -2.67487     3.24120
O      0.92303    -0.97319     1.83987
O      1.74589    -3.03606     1.70635
H      2.34902    -2.61990     1.03276
H     -1.02910    -2.47629     2.91626
H      0.14655    -3.73636     3.39656
H      0.12547    -2.12680     4.16797
C      1.89578     3.25945    -2.03634
C      1.15995     4.46043    -2.53814
O      2.95604     2.85619    -2.47947
O      1.26720     2.63820    -1.05383
H      1.73409     1.81567    -0.83625
H      0.64980     4.95810    -1.71932
H      1.84462     5.13434    -3.04067
H      0.41141     4.11629    -3.25094
C      3.19462    -0.82440    -0.62071
C      4.04762    -0.39808    -1.75742
O      3.26892    -1.91449    -0.09363
O      2.30039     0.08582    -0.21918
H      1.79351    -0.27461     0.54904
H      4.14128     0.68156    -1.78793
H      5.01727    -0.88320    -1.69421
H      3.55220    -0.73521    -2.66771
C     -2.79871     0.53464     0.45598
C     -1.99300     1.46800    -0.38873
O     -3.74442     0.90332     1.13369
O     -2.39160    -0.71917     0.40730
H     -2.83868    -1.26673     1.10830
H     -1.80925     2.38771     0.15590
H     -1.05708     0.99814    -0.65318
H     -2.53495     1.70447    -1.30173
C      0.41750    -1.22082    -2.49933
C     -0.20503    -2.15146    -1.50453
O      1.40391    -1.46964    -3.15430
O     -0.22145    -0.05054    -2.56355
H      0.20998     0.52279    -3.23026
H      0.41193    -3.03382    -1.38276
H     -0.31055    -1.63565    -0.55602
H     -1.20871    -2.43808    -1.81262
C     -1.62945     0.66239     4.13009
C     -2.47417     1.82433     4.54944
O     -1.61253    -0.40964     4.68366
O     -0.90109     0.93563     3.03944
H     -0.33958     0.17160     2.83012
H     -3.24689     1.98351     3.79938
H     -2.94109     1.59672     5.50189
H     -1.87571     2.72950     4.62267
C      1.95004     1.04072    -5.03201
C      1.89654     0.16667    -6.24247
O      0.96311     1.45513    -4.44760
O      3.18422     1.29770    -4.63895
H      3.16635     1.85873    -3.83315
H      2.77554     0.32771    -6.85728
H      1.89475    -0.86812    -5.90288
H      0.98424     0.35172    -6.80016
