 56
-1604.8082130762584
C      3.28553     2.95698     0.36265
C      3.02049     4.40297     0.64539
O      4.32552     2.39086     0.60108
O      2.22624     2.33967    -0.17855
H      2.48874     1.43836    -0.43336
H      3.92425     4.87203     1.02078
H      2.68343     4.90779    -0.25808
H      2.23012     4.48627     1.38939
C     -5.81312    -3.41468    -2.16854
C     -6.93719    -4.38224    -2.39989
O     -5.97452    -2.20575    -2.24533
O     -4.66423    -3.98650    -1.88299
H     -3.94954    -3.30670    -1.75074
H     -7.31284    -4.24831    -3.41149
H     -6.59514    -5.40021    -2.25433
H     -7.75067    -4.14926    -1.71751
C      1.44798     1.08813     2.75645
C      2.68846     0.36587     3.17029
O      1.25384     2.26917     2.98983
O      0.58445     0.33451     2.10395
H     -2.91178     4.56346     1.12084
H      3.45535     0.55309     2.41758
H      3.04227     0.75793     4.11953
H      2.50504    -0.70109     3.23444
C      1.09628    -2.31165     0.45077
C     -0.13170    -3.00341     0.94339
O      2.19665    -2.50124     0.94382
O      0.88700    -1.47330    -0.54659
H      1.71046    -0.97524    -0.75834
H      0.11830    -4.02509     1.21975
H     -0.47056    -2.48254     1.83867
H     -0.91086    -2.97512     0.18965
C     -2.91247    -0.95658    -1.63534
C     -1.76869    -0.01653    -1.43602
O     -2.77522    -2.17077    -1.54598
O     -4.05905    -0.37934    -1.90963
H     -4.77596    -1.05792    -2.03266
H     -2.10160     1.01113    -1.48894
H     -1.32108    -0.20870    -0.47059
H     -1.01010    -0.21664    -2.18540
C     -1.38760     3.07061     1.11917
C     -2.45287     3.86795     0.42226
O     -1.36480     1.84863     1.12029
O     -0.47363     3.81497     1.70490
H      0.17430     3.24946     2.19792
H     -0.14267     0.89265     1.73044
H     -1.99717     4.44704    -0.37901
H     -3.19838     3.19665     0.01447
C      4.28333    -0.49910    -0.66521
C      5.53565     0.07870    -1.23672
O      3.16020    -0.17040    -1.05213
O      4.46184    -1.36553     0.29483
H      3.60243    -1.79667     0.56156
H      5.43781     0.16821    -2.31516
H      5.65605     1.07817    -0.82131
H      6.38774    -0.53516    -0.96743
