 48
-1375.5475801153875
C     -4.57495    -0.07948     1.96050
C     -5.64911     0.11242     2.99002
O     -4.66859    -0.88537     1.04586
O     -3.52694     0.69371     2.14417
H     -2.84943     0.55464     1.43660
H     -5.23538    -0.05639     3.98136
H     -6.00576     1.13922     2.95324
H     -6.46510    -0.57383     2.79945
C      2.78446     1.01564    -3.06885
C      2.44348     1.75423    -4.32399
O      2.27045    -0.04895    -2.75822
O      3.68063     1.62487    -2.32328
H      3.82757     1.11321    -1.48912
H      2.05002     1.06362    -5.06183
H      1.67727     2.48764    -4.07727
H      3.31607     2.27812    -4.70040
C     -1.93454    -0.30167    -0.81301
C     -1.01618    -0.25368    -1.98511
O     -1.71531     0.30785     0.23314
O     -2.99291    -1.04964    -0.97527
H     -3.61972    -0.97276    -0.20596
H     -1.53847    -0.51256    -2.90115
H     -0.57308     0.73375    -2.05753
H     -0.20391    -0.96162    -1.83170
C      1.12485     2.62000    -0.23269
C      2.16835     3.53688     0.32764
O      0.65128     2.71190    -1.33910
O      0.78925     1.64567     0.62451
H      0.01113     1.17519     0.28119
H      2.05891     3.64451     1.40277
H      3.14624     3.10351     0.12268
H      2.10679     4.50227    -0.16555
C      3.10211    -0.51545     0.39605
C      3.05215    -0.91552     1.82852
O      3.89455     0.29798    -0.04059
O      2.20888    -1.12041    -0.38365
H      2.25645    -0.74271    -1.30628
H      3.15781    -1.99432     1.91840
H      3.83833    -0.40780     2.37698
H      2.07732    -0.66125     2.23776
C     -0.35034    -2.81805     1.60913
C     -1.79786    -3.12815     1.85244
O      0.49073    -2.69194     2.46155
O     -0.09840    -2.66454     0.29560
H      0.80867    -2.33577     0.19215
H     -1.92808    -3.54217     2.84570
H     -2.36959    -2.20535     1.78789
H     -2.17958    -3.80661     1.09680
