 56
-1604.7992748747631
C      3.43403    -0.77475    -2.22535
C      4.91647    -0.65611    -2.32586
O      2.86646    -1.28902    -1.26242
O      2.77456    -0.30112    -3.25387
H      1.79626    -0.42821    -3.12484
H      5.18249    -0.01750    -3.16068
H      5.31247    -0.27006    -1.39139
H      5.32982    -1.65309    -2.47269
C     -0.62191     2.82858    -2.67116
C      0.39507     2.85268    -3.76616
O     -1.74918     2.38099    -2.82269
O     -0.19174     3.31670    -1.52487
H     -0.89470     3.24393    -0.84095
H      0.94181     1.91063    -3.74333
H     -0.10537     2.93494    -4.72515
H      1.09409     3.66863    -3.61768
C     -0.63104    -0.04265     1.85680
C      0.32549    -0.90211     2.60450
O     -1.83489    -0.21594     1.79838
O     -0.04401     0.97430     1.22462
H     -3.87725     1.22160     1.75541
H      0.61952    -1.72646     1.95744
H      1.21326    -0.33381     2.85470
H     -0.15949    -1.32163     3.47936
C     -0.37812    -1.12425    -1.90226
C     -1.86942    -1.14539    -1.79535
O      0.21546    -0.61768    -2.84141
O      0.23627    -1.69299    -0.88757
H      1.21274    -1.58948    -0.98982
H     -2.15911    -0.82295    -0.80041
H     -2.28981    -0.49019    -2.54938
H     -2.22657    -2.16262    -1.94482
C     -2.82077    -3.38729     2.99488
C     -3.68142    -4.55668     3.39581
O     -1.62438    -3.33845     3.13008
O     -3.55558    -2.39765     2.46343
H     -2.96704    -1.66422     2.21109
H     -3.06130    -5.32559     3.84213
H     -4.44087    -4.22763     4.10243
H     -4.19294    -4.95100     2.51960
C     -3.19354     2.39161     0.15787
C     -4.15432     2.15965     1.27633
O     -2.07363     2.86428     0.33956
O     -3.62398     2.02601    -1.02134
H     -2.92925     2.18840    -1.71691
H     -0.72351     1.54707     0.83356
H     -4.05971     2.95643     2.00725
H     -5.16716     2.08595     0.89665
C      4.47119    -0.05087     1.71067
C      4.62647     0.34256     3.15242
O      5.28809     0.14503     0.84678
O      3.29287    -0.65673     1.48904
H      3.23640    -0.88665     0.54788
H      4.67860    -0.55158     3.77179
H      5.53082     0.92783     3.27256
H      3.75799     0.91402     3.47281
