 64
-1834.0608856977574
C     -6.88655    -1.54208     0.96331
C     -8.23729    -2.03616     1.39237
O     -6.43828    -1.76974    -0.15021
O     -6.24711    -0.85316     1.88337
H     -5.35995    -0.55371     1.55152
H     -8.42815    -1.77045     2.42559
H     -8.99303    -1.60083     0.74306
H     -8.27673    -3.11442     1.26037
C      2.29187     3.68134     1.71191
C      1.73262     4.72543     2.61986
O      1.63669     3.16888     0.80192
O      3.52400     3.34259     1.97438
H      3.87446     2.70446     1.29567
H      1.12331     5.41882     2.04766
H      1.08877     4.22052     3.33905
H      2.53435     5.23705     3.14093
C      0.85103    -0.51912    -3.56445
C     -0.26602    -1.18896    -4.29295
O      2.03181    -0.71642    -3.79078
O      0.44855     0.31005    -2.61764
H      1.22031     0.65199    -2.13739
H     -0.06043    -1.18199    -5.36037
H     -0.30707    -2.22485    -3.96022
H     -1.20935    -0.70164    -4.07751
C      3.83466     1.19384    -0.78633
C      4.45237     0.23929    -1.74237
O      4.42498     1.70163     0.14444
O      2.54254     1.44215    -1.01540
H      2.20254     2.09017    -0.34912
H      5.52458     0.40340    -1.78396
H      4.26992    -0.76629    -1.36733
H      3.99656     0.33339    -2.72121
C     -3.37774    -0.38340    -0.06523
C     -1.99274     0.02706    -0.44245
O     -3.88658    -0.07188     1.00644
O     -3.99983    -1.09034    -0.97989
H     -4.91389    -1.34056    -0.67582
H     -1.33053    -0.14326     0.39632
H     -1.66397    -0.51758    -1.31633
H     -1.98848     1.09460    -0.64370
C      2.17785    -1.10058     0.99724
C      2.16920    -0.24280     2.22670
O      3.16947    -1.61638     0.53754
O      0.96895    -1.20557     0.43645
H      1.03190    -1.79428    -0.34420
H      1.64103     0.68358     2.02356
H      1.63770    -0.73245     3.03895
H      3.18522    -0.02343     2.53116
C     -1.05447     2.03840     2.87720
C     -2.32254     1.39995     3.34832
O     -0.08714     2.25482     3.56626
O     -1.08409     2.33688     1.56430
H     -0.23247     2.74009     1.33504
H     -2.37137     0.37578     2.98744
H     -2.34212     1.40776     4.43346
H     -3.18878     1.91448     2.94071
C      2.37013    -3.40445    -1.90891
C      2.86851    -4.67668    -1.30112
O      1.28174    -2.91656    -1.65885
O      3.24843    -2.85343    -2.72809
H      2.90100    -2.00967    -3.09160
H      3.53112    -5.18696    -1.99237
H      3.43411    -4.41631    -0.40752
H      2.03331    -5.30751    -1.01493
