 72
-2063.32707504254
C      4.55000    -0.33754     3.59676
C      5.21836    -0.73393     4.87647
O      4.16022     0.79554     3.37705
O      4.42674    -1.33055     2.74169
H      3.91811    -1.03875     1.94502
H      6.12659    -1.29224     4.66365
H      5.44708     0.14919     5.46204
H      4.55144    -1.37790     5.44186
C      0.11540     3.66945     0.94810
C      0.48957     3.86192     2.37909
O     -0.80837     2.94102     0.59600
O      0.85391     4.33327     0.09676
H      0.58183     4.15118    -0.84137
H      0.76688     4.89666     2.55695
H     -0.32977     3.56340     3.02197
H      1.35491     3.23816     2.58892
C     -0.63656     2.89348    -2.76911
C     -0.80570     2.47596    -4.19250
O      0.17655     3.72316    -2.40067
O     -1.45478     2.27222    -1.93267
H     -1.28489     2.57232    -1.01103
H     -1.85584     2.52453    -4.46335
H     -0.20740     3.11679    -4.83245
H     -0.47989     1.44264    -4.30091
C      0.20901    -2.68774    -1.14511
C      1.15894    -3.07548    -0.06460
O     -0.96281    -3.04058    -1.15629
O      0.72525    -1.90948    -2.07487
H      0.04627    -1.67974    -2.76406
H      1.14336    -2.32020     0.71301
H      0.85584    -4.01263     0.38599
H      2.16920    -3.13192    -0.45354
C      1.41165    -2.56390     3.86899
C      2.27418    -3.28001     4.86782
O      0.73372    -3.12080     3.03962
O      1.49005    -1.23767     3.99195
H      0.98093    -0.82765     3.26753
H      2.29757    -2.74169     5.81087
H      1.89952    -4.28896     5.01690
H      3.28691    -3.34329     4.47248
C     -2.07478    -2.04230    -4.09820
C     -2.81675    -1.98818    -5.39623
O     -1.10135    -1.33351    -3.86834
O     -2.55925    -2.89375    -3.22519
H     -1.96865    -2.95051    -2.42210
H     -3.50447    -2.82273    -5.47228
H     -3.36787    -1.05139    -5.43871
H     -2.10798    -1.99489    -6.22045
C     -1.38169    -0.41377     1.85758
C     -2.08537    -1.71629     2.05000
O     -0.20473    -0.20824     2.07831
O     -2.18560     0.53918     1.38947
H     -1.66514     1.34621     1.23795
H     -1.45012    -2.40648     2.58928
H     -3.02269    -1.55336     2.58034
H     -2.31671    -2.13317     1.07165
C     -4.56451     0.91196    -2.92201
C     -3.69255     0.18731    -1.94601
O     -4.30207     1.11878    -4.08102
O     -5.72642     1.33214    -2.37587
H     -6.21082     1.78334    -3.07893
H     -2.67948     0.18273    -2.32378
H     -3.71272     0.67153    -0.97558
H     -4.05312    -0.83193    -1.83551
C      2.46078     0.59229     0.55327
C      1.68754     0.96767    -0.66544
O      2.93485    -0.51932     0.71706
O      2.57825     1.56271     1.43405
H      3.16847     1.29001     2.18836
H      0.63234     0.99511    -0.40608
H      1.97212     1.95664    -1.00606
H      1.84578     0.22733    -1.43686
