 32
-917.0148867415661
C      2.19001    -0.21857    -1.97192
C      3.58909    -0.75187    -1.92316
O      1.83755     0.74632    -2.60498
O      1.34737    -0.94421    -1.21470
H      0.45982    -0.56387    -1.31583
H      4.18854    -0.23846    -2.66693
H      4.00599    -0.58882    -0.93225
H      3.58578    -1.82340    -2.11145
C     -1.70960     1.15191    -1.82729
C     -1.20053     1.61223    -3.14916
O     -1.33057     0.10745    -1.29560
O     -2.59551     1.93785    -1.27378
H     -2.87993     1.58930    -0.38384
H     -1.73960     2.49522    -3.47110
H     -0.13434     1.81138    -3.06289
H     -1.30695     0.80133    -3.86483
C      2.61069    -0.71647     2.14117
C      1.45182    -1.63704     1.90445
O      3.74025    -0.88044     1.75881
O      2.25267     0.36310     2.87650
H      3.05223     0.89245     2.98559
H      0.54386    -1.06218     1.75321
H      1.65197    -2.25506     1.03689
H      1.31982    -2.27075     2.78174
C     -2.92862    -0.00205     1.63755
C     -3.40371    -0.43241     2.99354
O     -3.33714     1.01312     1.09677
O     -2.04484    -0.81467     1.09111
H     -1.78096    -0.48532     0.19657
H     -2.80551    -1.25695     3.36424
H     -3.35797     0.41407     3.67282
H     -4.44528    -0.73505     2.91439
