 72
-2063.322539884926
C      3.20752    -1.36878     1.29260
C      3.85902    -0.27084     2.07159
O      3.11993    -1.40634     0.08727
O      2.69375    -2.33244     2.07770
H      2.25776    -2.99085     1.51076
H      3.21876     0.60925     2.06648
H      4.04868    -0.58878     3.09257
H      4.78375     0.01840     1.58089
C     -1.50440     4.73011     0.91571
C     -1.32769     5.24260     2.30448
O     -2.00397     3.63975     0.66009
O     -1.07493     5.54303    -0.02192
H     -1.21015     5.13141    -0.90905
H     -0.26502     5.24557     2.53399
H     -1.69961     6.26183     2.37806
H     -1.84612     4.59104     2.99905
C     -2.21517     3.37294    -2.59356
C     -2.49720     2.87845    -3.96994
O     -1.36361     4.22365    -2.34180
O     -2.95104     2.81775    -1.66648
H     -2.65882     3.10372    -0.76986
H     -2.14580     1.85096    -4.03902
H     -3.56857     2.87810    -4.15139
H     -1.98042     3.49360    -4.69777
C     -1.53827    -6.52308     1.66368
C     -2.42403    -7.32625     2.57095
O     -0.80349    -5.64353     2.09129
O     -1.62268    -6.84379     0.39332
H     -1.01549    -6.26900    -0.14879
H     -1.80685    -7.82456     3.31464
H     -3.08942    -6.65017     3.10239
H     -2.99299    -8.05125     2.00066
C      2.53067     3.72980     1.24767
C      2.86704     5.12615     0.80962
O      3.33117     2.83565     1.33774
O      1.22458     3.58227     1.52304
H      1.02833     2.62757     1.62492
H      3.89138     5.35492     1.09014
H      2.78598     5.18449    -0.27502
H      2.18124     5.84370     1.24952
C      0.85995    -4.55802    -0.56045
C      1.85156    -3.88208    -1.43639
O      0.00340    -5.31548    -0.98383
O      0.96460    -4.26576     0.73054
H      0.28846    -4.77431     1.25709
H      2.80794    -3.80199    -0.93283
H      1.93564    -4.42389    -2.37313
H      1.49314    -2.87069    -1.62723
C     -0.59099     0.30955     1.63107
C     -0.60733    -1.16388     1.85869
O      0.42022     0.98359     1.63157
O     -1.79060     0.83476     1.40664
H     -1.70949     1.78054     1.21095
H     -0.23621    -1.64657     0.95734
H      0.05912    -1.40858     2.67922
H     -1.61640    -1.51357     2.06008
C      1.11113     1.73713    -1.86920
C      2.37872     0.97510    -1.71674
O      0.03285     1.23491    -2.11968
O      1.24596     3.05123    -1.70742
H      0.37967     3.48198    -1.81007
H      2.78406     1.14192    -0.72484
H      2.20363    -0.08367    -1.84190
H      3.10192     1.33148    -2.44768
C     -1.54789    -1.66391    -1.81582
C     -2.58583    -2.75263    -1.84066
O     -0.49789    -1.75597    -1.22029
O     -1.91588    -0.58063    -2.50247
H     -1.22250     0.09861    -2.39895
H     -3.33880    -2.54774    -2.59643
H     -2.10838    -3.71129    -2.01987
H     -3.06093    -2.79697    -0.86048
