 56
-1604.8048961946881
C     -0.57693     1.75589    -2.76667
C     -1.00732     1.61684    -1.34030
O     -1.23460     1.45416    -3.73006
O      0.68240     2.23718    -2.89719
H      0.84854     2.30243    -3.84563
H     -0.97215     0.56185    -1.07442
H     -0.36119     2.17446    -0.66933
H     -2.03293     1.95582    -1.23509
C      1.29868    -1.63576    -2.47574
C      0.52204    -1.87341    -3.73246
O      0.80374    -1.11955    -1.48318
O      2.55487    -2.01567    -2.54400
H      2.99196    -1.85610    -1.67090
H     -0.46501    -2.24899    -3.47784
H      0.39780    -0.91962    -4.24266
H      1.05385    -2.56726    -4.37681
C      1.99073     2.02076     1.05272
C      2.55777     1.88240    -0.32099
O      1.05085     2.75698     1.31277
O      2.57683     1.27023     1.96153
H     -0.05465     1.36063     6.39466
H      3.63486     1.76740    -0.27291
H      2.13762     0.98756    -0.77628
H      2.28156     2.73424    -0.92665
C      2.93863    -1.75102     0.90313
C      3.58688    -2.07580     2.21186
O      3.56390    -1.53289    -0.11972
O      1.62092    -1.71249     0.96718
H      1.23335    -1.48639     0.08922
H      3.57962    -1.17921     2.82827
H      3.01591    -2.84334     2.72609
H      4.61135    -2.39233     2.04788
C     -3.64874    -1.01739    -2.31094
C     -4.14728    -0.92189    -3.71633
O     -2.79418    -1.82267    -1.96728
O     -4.18997    -0.13963    -1.49746
H     -3.82769    -0.24574    -0.57999
H     -5.21373    -0.71795    -3.72120
H     -3.63565    -0.09120    -4.19850
H     -3.92042    -1.84004    -4.24611
C      0.15767     2.02469     4.38355
C     -0.51764     2.07270     5.72229
O      1.15459     1.35105     4.16453
O     -0.43504     2.75756     3.47063
H      0.09725     2.76141     2.63071
H      2.06694     1.30869     2.81638
H     -0.43695     3.07783     6.13056
H     -1.57459     1.85003     5.60092
C     -2.15010    -1.12827     1.18608
C     -1.38490    -0.99937     2.46647
O     -3.06423    -0.37234     0.89591
O     -1.74888    -2.11507     0.42033
H     -2.16905    -2.06086    -0.47586
H     -1.85051    -1.63356     3.21940
H     -0.36310    -1.32176     2.31479
H     -1.43109     0.03186     2.79653
