 56
-1604.8067095521476
C     -1.69335    -0.13812     2.76504
C     -1.80339     1.17936     2.07534
O     -0.70224    -0.44338     3.41559
O     -2.72065    -0.93830     2.61547
H     -2.54243    -1.81346     3.04744
H     -2.75247     1.28933     1.56676
H     -1.64649     1.97865     2.79319
H     -0.99851     1.24338     1.35016
C     -1.59052     0.08037    -3.91846
C     -1.96774     0.82738    -5.15204
O     -1.66531     0.55917    -2.79542
O     -1.14598    -1.13701    -4.14453
H     -0.91723    -1.57496    -3.28927
H     -2.39315     0.14831    -5.88429
H     -2.65779     1.62608    -4.90111
H     -1.05859     1.26239    -5.56351
C      1.99272     1.40171     2.58636
C      2.64124     0.74978     3.76546
O      1.94288     0.87163     1.48556
O      1.46636     2.57838     2.83630
H     -0.91596     3.20279    -2.00298
H      2.74460     1.45853     4.57882
H      2.01052    -0.08113     4.08039
H      3.60596     0.34401     3.47464
C     -1.06368    -3.61109     4.20776
C     -0.83129    -4.99868     4.72981
O     -2.10352    -3.29929     3.64716
O     -0.05895    -2.78331     4.39295
H     -0.28752    -1.88090     4.04701
H     -1.59436    -5.23123     5.46828
H     -0.94364    -5.70627     3.91237
H      0.15700    -5.07519     5.16723
C     -0.51390    -1.66551    -0.68652
C     -0.01432    -2.31158     0.56688
O     -0.41131    -2.17843    -1.78655
O     -1.06331    -0.48436    -0.48609
H     -1.31531    -0.06625    -1.35252
H     -0.85985    -2.60053     1.18393
H      0.56402    -3.19547     0.32263
H      0.58783    -1.59854     1.12471
C      0.59848     3.07756    -0.54531
C      0.00740     3.72279    -1.75625
O      0.50323     3.55410     0.57478
O      1.21218     1.93750    -0.79292
H      1.49860     1.51285     0.05676
H      1.12150     2.98250     1.99764
H     -0.21173     4.76443    -1.54459
H      0.68413     3.62570    -2.59745
C      2.05565     0.88102    -4.40533
C      2.10475     0.06903    -3.14966
O      1.15720     1.62501    -4.71603
O      3.14005     0.71056    -5.18776
H      3.01184     1.27517    -5.95999
H      2.96426     0.34080    -2.54512
H      1.21101     0.26689    -2.57492
H      2.16074    -0.99175    -3.37852
