 64
-1834.0569722648004
C     -1.41015    -0.35433    -2.72620
C     -0.02312    -0.18379    -3.25113
O     -2.24308     0.53654    -2.77730
O     -1.66216    -1.53907    -2.19529
H     -2.53992    -1.52579    -1.74752
H      0.65361    -0.15863    -2.40064
H      0.24899    -1.02411    -3.88378
H      0.03807     0.75346    -3.79067
C      3.89279     2.70587     0.54136
C      3.30209     3.83241     1.31801
O      3.24768     2.03248    -0.26257
O      5.15934     2.48667     0.79414
H      5.50461     1.71500     0.27771
H      2.75144     4.48800     0.65112
H      2.57162     3.42643     2.01238
H      4.07668     4.37180     1.85167
C      1.06602    -2.22142    -0.39156
C      0.08847    -3.30515    -0.05478
O      0.82094    -1.03907    -0.39146
O      2.28810    -2.69354    -0.68997
H      2.87564    -1.93835    -0.85485
H     -0.87948    -3.06188    -0.47745
H      0.44118    -4.26849    -0.41459
H     -0.02033    -3.33403     1.02716
C      5.34347    -0.55137    -0.92218
C      5.81427    -1.91118    -1.32856
O      6.08222     0.33543    -0.54816
O      4.02684    -0.40167    -1.02936
H      3.73254     0.50276    -0.75641
H      5.74098    -1.99533    -2.41113
H      6.84625    -2.05074    -1.02466
H      5.17742    -2.67510    -0.89003
C     -4.69025    -0.26205    -0.77170
C     -5.93034    -0.22196     0.05797
O     -4.05739    -1.29872    -0.96859
O     -4.32607     0.89448    -1.25923
H     -3.53640     0.77976    -1.85322
H     -6.50712     0.66714    -0.17202
H     -6.50466    -1.12688    -0.11347
H     -5.62762    -0.20609     1.10402
C     -0.59244    -0.03429     2.31562
C      0.64506     0.79338     2.14447
O     -0.60947    -1.15719     2.76186
O     -1.70257     0.60754     1.91619
H     -2.47281     0.03703     2.07635
H      1.45787     0.34576     2.70654
H      0.91661     0.81599     1.09299
H      0.45390     1.80794     2.47516
C     -0.21082     3.34156    -0.17704
C     -1.66536     3.36414    -0.52333
O      0.25266     3.73802     0.86341
O      0.54435     2.82755    -1.16316
H      1.46088     2.77246    -0.84777
H     -1.93033     4.35827    -0.88379
H     -1.88372     2.62924    -1.29070
H     -2.24884     3.15748     0.36926
C     -3.45445    -2.37222     2.33033
C     -2.99332    -3.12735     3.53219
O     -3.87732    -1.23193     2.35369
O     -3.33415    -3.06145     1.19637
H     -3.63555    -2.49849     0.46458
H     -3.62253    -2.87591     4.38093
H     -2.99925    -4.19349     3.33345
H     -1.97694    -2.79984     3.75075
