 56
-1604.8096267483306
C      2.02633     1.30339    -2.01122
C      1.14379     2.24453    -2.76420
O      2.11603     1.25481    -0.80715
O      2.72895     0.49727    -2.82278
H      3.25066    -0.09662    -2.26042
H      1.71096     2.74906    -3.54386
H      0.34404     1.67766    -3.23728
H      0.71113     2.96704    -2.08009
C     -0.42133    -1.70283    -3.40309
C      0.59618    -2.11043    -4.41843
O     -0.46059    -0.58901    -2.90200
O     -1.27011    -2.65497    -3.09164
H     -1.87923    -2.32344    -2.38480
H      1.28433    -1.29142    -4.58284
H      1.12776    -2.98460    -4.05061
H      0.09510    -2.38326    -5.34644
C     -0.65962     1.33254     2.14787
C      0.38381     0.41135     1.61428
O     -1.54811     0.96220     2.90566
O     -0.55544     2.57087     1.72207
H     -3.55690     5.50832     4.86824
H      0.34429    -0.53292     2.14366
H      0.19061     0.26021     0.55987
H      1.36816     0.85805     1.68857
C      1.07798    -3.30420     0.06069
C     -0.13086    -4.18640     0.00369
O      1.67197    -3.04699     1.09281
O      1.43495    -2.81696    -1.11735
H      2.23258    -2.23833    -1.02997
H     -0.18365    -4.68155    -0.95941
H     -0.09851    -4.90712     0.81456
H     -1.01971    -3.57012     0.11906
C     -2.79839    -0.59960    -0.65181
C     -3.86394    -0.15812     0.30592
O     -2.77805    -1.71605    -1.14497
O     -1.87429     0.31195    -0.89157
H     -1.27357    -0.00524    -1.61544
H     -4.72509    -0.81412     0.22357
H     -3.46612    -0.21369     1.31646
H     -4.14118     0.87285     0.10798
C     -3.17372     3.74664     3.75300
C     -4.12528     4.69167     4.43025
O     -2.41878     4.11603     2.86626
O     -3.23386     2.51161     4.19901
H     -2.59064     1.92417     3.71379
H     -1.23662     3.15468     2.14792
H     -4.78664     5.12076     3.68159
H     -4.69691     4.17377     5.19157
C      4.04155    -0.86756     0.22543
C      5.02102     0.25892     0.28479
O      3.69028    -1.38369    -0.83440
O      3.57341    -1.23856     1.38677
H      2.90505    -1.96421     1.28130
H      5.46900     0.32411     1.27087
H      5.77584     0.12799    -0.48418
H      4.46768     1.17381     0.07679
