 80
-2292.5900460673756
C      4.20524    -2.02579    -2.05246
C      4.32253    -3.49391    -2.31964
O      3.72723    -1.23620    -2.85442
O      4.65321    -1.66669    -0.87013
H      4.66586    -0.68165    -0.79177
H      5.33356    -3.82907    -2.10262
H      3.65208    -4.03564    -1.65615
H      4.06621    -3.70893    -3.35077
C      0.11278     2.86973    -2.89590
C      0.22800     1.89404    -4.02521
O     -0.74316     2.78223    -2.02021
O      1.01651     3.81437    -2.91130
H      0.95182     4.38784    -2.09492
H      0.47993     2.41271    -4.94579
H      1.03080     1.19762    -3.79419
H     -0.70169     1.34608    -4.13111
C     -2.99279    -5.34307    -0.00180
C     -4.26766    -6.12414     0.12389
O     -2.47782    -5.08541    -1.07584
O     -2.50441    -4.96141     1.16533
H     -1.68362    -4.41698     1.06837
H     -4.60658    -6.43320    -0.85690
H     -4.10153    -6.98999     0.76007
H     -5.02020    -5.50153     0.60316
C      0.38195     4.88406     0.33352
C      0.75840     5.40112     1.68144
O      0.95368     5.20474    -0.69556
O     -0.63449     4.03518     0.34540
H     -0.72131     3.60458    -0.53642
H     -0.11850     5.46784     2.31805
H      1.45939     4.69317     2.12248
H      1.24450     6.36587     1.57998
C      0.06439    -3.05174    -0.37168
C      1.12232    -2.00744    -0.49430
O     -0.32684    -3.47309     0.70527
O     -0.41534    -3.46863    -1.52261
H     -1.13467    -4.13132    -1.37811
H      1.30713    -1.79135    -1.53784
H      0.79827    -1.11534     0.02635
H      2.02341    -2.36517    -0.00556
C     -2.30082    -0.27747    -0.85773
C     -3.26806    -1.41692    -0.74955
O     -1.44072    -0.03195    -0.04657
O     -2.48475     0.45141    -1.96470
H     -1.83825     1.17941    -1.98108
H     -3.28813    -1.99141    -1.67272
H     -2.97027    -2.04573     0.08134
H     -4.26767    -1.03384    -0.55494
C     -3.29749     1.61904     2.49433
C     -3.65978     2.93614     1.87820
O     -2.37543     1.49619     3.28138
O     -4.06716     0.62153     2.10102
H     -3.75406    -0.23215     2.49222
H     -4.25130     2.77984     0.98179
H     -4.23563     3.50877     2.60352
H     -2.74704     3.47789     1.65122
C      1.88708     1.50372     1.50491
C      0.56976     1.20928     2.14400
O      2.35539     2.61311     1.36793
O      2.51370     0.40012     1.06491
H      3.35650     0.66501     0.66550
H     -0.19024     1.08841     1.37608
H      0.60737     0.29335     2.72016
H      0.28313     2.04136     2.77527
C      4.15613     1.77399    -1.53756
C      4.11645     3.24744    -1.31483
O      4.65739     0.99450    -0.72863
O      3.61118     1.36502    -2.65634
H      3.64679     0.37068    -2.73323
H      5.11752     3.59537    -1.06813
H      3.73293     3.75178    -2.19179
H      3.46660     3.44262    -0.46223
C     -2.02423    -1.85798     3.52962
C     -1.40962    -3.20483     3.74082
O     -3.12067    -1.70031     3.01355
O     -1.25559    -0.86670     3.93486
H     -1.65503     0.01333     3.72466
H     -0.49528    -3.25292     3.15678
H     -1.15876    -3.33395     4.79135
H     -2.09656    -3.97384     3.41399
