 48
-1375.5490303162642
C     -0.32326    -3.05417     0.26833
C     -0.05977    -4.39424    -0.34696
O      0.17943    -2.69472     1.31912
O     -1.11680    -2.28355    -0.44904
H     -1.36382    -1.47667     0.07382
H     -0.98647    -4.84341    -0.69664
H      0.59436    -4.25548    -1.20539
H      0.42793    -5.03713     0.37828
C      1.37701    -0.64285    -1.58568
C      0.47118    -0.45733    -2.75266
O      1.49219     0.18395    -0.68404
O      2.03370    -1.77372    -1.56627
H      2.71344    -1.77857    -0.83166
H      0.37412     0.60118    -2.96063
H      0.83346    -0.99788    -3.62214
H     -0.51030    -0.83971    -2.47659
C     -0.22045     3.29845    -1.02966
C     -0.79189     4.65337    -0.76535
O     -0.41516     2.65678    -2.04516
O      0.52568     2.83093    -0.03372
H      0.84566     1.94802    -0.28005
H     -0.29286     5.11990     0.07651
H     -0.70128     5.26239    -1.66098
H     -1.85083     4.52965    -0.54827
C     -3.33018     1.41775    -1.14150
C     -4.59805     0.62303    -1.01058
O     -3.12056     2.45027    -0.54922
O     -2.45250     0.83774    -1.96935
H     -1.65794     1.40568    -2.04640
H     -4.84308     0.13746    -1.95109
H     -4.44723    -0.14571    -0.25338
H     -5.40246     1.27809    -0.69078
C      3.81365    -1.08304     1.34341
C      4.70875    -1.31591     2.52350
O      3.81454    -1.80246     0.35486
O      3.01879    -0.04282     1.47594
H      2.45836     0.06312     0.67369
H      5.28229    -0.41625     2.73401
H      4.09568    -1.53143     3.39613
H      5.37443    -2.14749     2.32405
C     -1.21516     0.16465     2.06335
C     -1.52909     1.49569     2.66615
O     -1.79646    -0.27395     1.08280
O     -0.24664    -0.48199     2.67151
H     -0.08956    -1.34383     2.20814
H     -1.68939     1.39070     3.73797
H     -0.67680     2.15318     2.51123
H     -2.40833     1.90654     2.18331
