 48
-1375.543920399598
C     -2.26664     1.83466    -0.93738
C     -3.48560     2.29255    -0.19397
O     -1.66796     2.48762    -1.75543
O     -1.88008     0.60182    -0.56061
H     -1.06791     0.37506    -1.03917
H     -3.98065     3.07354    -0.76168
H     -4.16381     1.46441    -0.00623
H     -3.16797     2.70556     0.76266
C      2.09853    -3.21923    -0.06158
C      2.11938    -4.54409     0.63032
O      1.09154    -2.79562    -0.62688
O      3.21432    -2.54978    -0.00595
H      3.13605    -1.68107    -0.49918
H      1.75519    -5.30210    -0.05856
H      3.12094    -4.78101     0.97349
H      1.42420    -4.50839     1.46684
C      0.49490     1.36887     1.64683
C      0.73611    -0.07842     1.93794
O      1.27567     2.03728     0.98533
O     -0.62104     1.84324     2.14357
H     -0.72593     2.80348     1.91230
H      0.52935    -0.31386     2.97757
H      0.07051    -0.67181     1.31578
H      1.76305    -0.31452     1.68591
C     -0.27297     4.95742     0.57770
C     -0.68150     6.27043    -0.01761
O     -0.94157     4.37465     1.41816
O      0.86127     4.49350     0.09999
H      1.05527     3.59826     0.47327
H     -0.96188     6.11146    -1.05685
H     -1.52268     6.67667     0.53140
H      0.15799     6.96002    -0.00064
C      1.93927     0.26478    -1.63091
C      1.92564     1.61957    -2.24063
O      2.95710    -0.28339    -1.24996
O      0.74698    -0.31266    -1.51273
H      0.85833    -1.24545    -1.20504
H      2.74669     1.69888    -2.94903
H      0.97382     1.81641    -2.71837
H      2.09407     2.34825    -1.44804
C     -1.76299    -4.76034     0.57364
C     -2.95558    -5.66553     0.44050
O     -1.42410    -4.19721     1.58360
O     -1.09107    -4.66275    -0.58777
H     -0.35292    -4.03951    -0.46972
H     -3.61745    -5.29157    -0.33869
H     -2.62926    -6.66082     0.14277
H     -3.48186    -5.71352     1.38689
