 48
-1375.5424211751551
C     -1.65589     0.41973     0.07908
C     -2.86374     1.27923    -0.14484
O     -0.93482     0.01770    -0.80176
O     -1.44763     0.15669     1.37656
H     -0.62741    -0.35503     1.45114
H     -2.54043     2.31334    -0.25268
H     -3.35277     0.98189    -1.06863
H     -3.55217     1.20578     0.69165
C      0.90712    -2.43539    -1.59535
C      0.01137    -2.88317    -2.69756
O      0.72411    -2.73718    -0.41642
O      1.90449    -1.67928    -1.98158
H      2.41445    -1.34396    -1.19837
H      0.45916    -2.67402    -3.66318
H     -0.20865    -3.93941    -2.57920
H     -0.93498    -2.35280    -2.59823
C      0.86595     2.53979    -1.13096
C      1.38641     1.72544    -2.26679
O      1.32788     2.48782     0.00090
O     -0.14463     3.31443    -1.45547
H     -0.45727     3.81454    -0.66021
H      2.30248     1.23286    -1.96428
H      0.64058     0.97624    -2.51449
H      1.55388     2.35748    -3.13658
C     -0.31735     4.71590     1.76359
C     -0.73518     5.66765     2.84651
O     -0.98802     4.54099     0.75629
O      0.81776     4.09299     1.99895
H      1.02799     3.47905     1.24539
H     -0.02102     5.65316     3.66143
H     -0.81031     6.66805     2.42691
H     -1.72400     5.38705     3.20050
C      2.50192    -0.37157     1.14501
C      2.98690     0.59731     2.17219
O      3.10649    -0.62481     0.11913
O      1.33615    -0.94012     1.43388
H      1.15852    -1.67169     0.78906
H      2.81789     0.20659     3.17187
H      4.04153     0.79399     2.01359
H      2.42324     1.52260     2.06286
C     -2.23973    -4.88772    -0.37129
C     -3.13418    -5.95737     0.19340
O     -2.53099    -4.15483    -1.28348
O     -1.05854    -4.85251     0.26332
H     -0.52490    -4.12085    -0.09782
H     -2.65945    -6.93035     0.08113
H     -3.28689    -5.78679     1.25715
H     -4.08436    -5.94418    -0.32770
