 72
-2063.330282006954
C      2.14143    -0.43597     3.24648
C      1.62216     0.78120     3.94963
O      2.99832    -0.37412     2.37815
O      1.59164    -1.56355     3.63938
H      1.93424    -2.32639     3.10258
H      0.89480     1.26814     3.30454
H      1.14402     0.50596     4.88304
H      2.43512     1.47991     4.11400
C     -0.86723     3.95556     1.11270
C     -2.15343     3.33737     1.54913
O      0.22857     3.52392     1.46444
O     -0.99877     4.98825     0.32123
H     -0.12524     5.43442     0.14069
H     -1.93462     2.43843     2.11158
H     -2.70494     4.04622     2.16489
H     -2.75472     3.10853     0.67646
C      2.37189     5.94687     0.36183
C      3.60904     6.74604     0.09126
O      1.28851     6.23049    -0.12796
O      2.55945     4.92237     1.16832
H      1.72668     4.41472     1.29201
H      4.45800     6.31875     0.61140
H      3.78788     6.76495    -0.98068
H      3.44231     7.77173     0.41041
C      3.24370    -3.47386     1.19293
C      3.55791    -4.63263     0.29707
O      2.48316    -3.57083     2.14524
O      3.85318    -2.35541     0.85772
H      3.59210    -1.61886     1.47148
H      2.64158    -4.96610    -0.18185
H      4.28766    -4.34067    -0.44957
H      3.93623    -5.45335     0.90224
C     -1.34988     2.10352    -2.49455
C     -0.95851     3.49029    -2.92640
O     -0.94819     1.08912    -3.00936
O     -2.16667     2.12228    -1.43734
H     -2.47119     1.20570    -1.24806
H     -1.82535     4.14836    -2.94242
H     -0.25713     3.89419    -2.19669
H     -0.48422     3.46037    -3.90231
C     -1.11988    -4.66298     0.13808
C     -1.01862    -4.91736     1.60816
O     -2.12426    -4.91219    -0.50925
O     -0.02703    -4.14342    -0.38873
H     -0.22661    -3.78272    -1.28916
H     -0.00016    -4.76694     1.94646
H     -1.68355    -4.21314     2.10704
H     -1.36852    -5.92442     1.82715
C      0.64598     0.37191    -0.41303
C      1.24097    -0.60115    -1.36846
O     -0.22408     0.11615     0.39671
O      1.17661     1.58700    -0.48924
H      0.82233     2.13044     0.23129
H      1.26424    -0.16332    -2.36378
H      2.26238    -0.81326    -1.05685
H      0.66653    -1.52075    -1.38181
C     -3.16726    -1.26790    -0.23437
C     -4.43675    -2.01253     0.02925
O     -3.07394    -0.36273    -1.03986
O     -2.14627    -1.70450     0.47191
H     -1.38097    -1.08979     0.37528
H     -5.26932    -1.51090    -0.45237
H     -4.34077    -3.01898    -0.37339
H     -4.60927    -2.09404     1.09972
C     -1.83080    -2.91203    -3.12780
C     -2.14534    -2.00441    -4.27243
O     -0.70873    -3.01989    -2.65461
O     -2.87052    -3.56505    -2.65113
H     -2.59810    -4.13792    -1.88946
H     -1.45219    -2.20575    -5.08525
H     -3.17350    -2.13155    -4.59091
H     -1.97712    -0.98033    -3.93846
