 64
-1834.0563617486796
C     -2.40820    -0.69423     0.05132
C     -1.43446    -1.81373    -0.06341
O     -2.10860     0.47460    -0.19028
O     -3.60765    -1.03523     0.43989
H     -4.21457    -0.24859     0.47688
H     -0.56759    -1.57972     0.54468
H     -1.87864    -2.74902     0.25185
H     -1.09901    -1.91199    -1.09039
C      2.46441     1.47401     1.69444
C      2.03539     2.53921     2.64212
O      2.01924     0.32878     1.71757
O      3.37658     1.85339     0.82930
H      3.66576     1.09795     0.26372
H      0.98899     2.76624     2.45614
H      2.09178     2.16228     3.65947
H      2.64853     3.42475     2.52053
C      1.29066    -0.43889    -2.69940
C      0.01002    -0.05730    -3.35645
O      1.61224    -1.57701    -2.42449
O      2.06615     0.60852    -2.40750
H      2.84073     0.30352    -1.90777
H     -0.62035     0.45589    -2.63533
H      0.19791     0.64220    -4.16658
H     -0.48862    -0.94655    -3.72196
C      4.06317    -1.41234    -0.27697
C      4.83551    -2.53102    -0.88819
O      4.17098    -0.24459    -0.64565
O      3.25505    -1.77300     0.68332
H      2.77746    -0.99642     1.07370
H      4.14326    -3.20577    -1.38615
H      5.54640    -2.13341    -1.60340
H      5.34729    -3.09260    -0.11039
C      0.14531     2.93501    -1.23567
C      1.24372     3.95737    -1.27923
O     -0.65499     2.74472    -2.11231
O      0.15088     2.23100    -0.08729
H     -0.56957     1.57760    -0.11611
H      1.33841     4.45492    -0.31764
H      2.18751     3.46078    -1.49946
H      1.03224     4.68096    -2.06152
C     -4.90243     2.22620     0.35282
C     -5.91107     3.33587     0.42229
O     -5.16625     1.06966     0.64708
O     -3.71018     2.62173    -0.04413
H     -3.09416     1.85912    -0.12032
H     -6.07134     3.73766    -0.57582
H     -6.84443     2.96208     0.82625
H     -5.52126     4.13958     1.04189
C     -1.27229     0.75247     3.41564
C     -2.75985     0.60608     3.53645
O     -0.60825     1.56892     4.00144
O     -0.74773    -0.13040     2.54759
H      0.20366     0.04503     2.46729
H     -3.03540    -0.43204     3.69597
H     -3.12404     1.22397     4.34920
H     -3.23287     0.92903     2.61207
C      0.51309    -4.85859    -1.52652
C      0.60493    -6.30760    -1.12086
O     -0.51087    -4.27149    -1.76860
O      1.72477    -4.27547    -1.57105
H      1.61788    -3.35380    -1.86078
H     -0.38115    -6.75767    -1.16094
H      1.28669    -6.83806    -1.78332
H      1.00177    -6.37811    -0.10893
