 64
-1834.0664082723135
C     -2.64946    -0.26284    -0.75356
C     -3.38989    -0.78686    -1.94486
O     -2.26188    -0.97591     0.15635
O     -2.42912     1.03392    -0.79706
H     -2.00028     1.32896     0.04489
H     -4.36965    -0.31636    -2.00310
H     -2.83540    -0.53092    -2.84415
H     -3.49558    -1.86271    -1.86318
C      2.13639     1.54498     2.63537
C      2.76606     2.50703     3.58696
O      2.17361     1.69147     1.41854
O      1.50785     0.54019     3.20549
H      1.26229    -0.14497     2.53774
H      3.65611     2.92899     3.13132
H      2.05232     3.31545     3.74836
H      2.99402     2.02257     4.53067
C      1.43557    -2.57686    -4.76224
C      1.76309    -3.92765    -5.32993
O      2.29319    -1.76448    -4.44801
O      0.14572    -2.36177    -4.62496
H     -0.03195    -1.44508    -4.28241
H      2.83771    -4.04339    -5.40705
H      1.34633    -4.69824    -4.68492
H      1.30117    -4.03237    -6.30908
C      0.99229    -1.13206     0.12437
C      0.77336    -2.22456    -0.85950
O      1.04059    -1.28535     1.33833
O      1.14342     0.05035    -0.42713
H      1.43660     0.71990     0.23468
H     -0.29232    -2.26290    -1.09182
H      1.32866    -1.99676    -1.76305
H      1.05466    -3.17816    -0.43139
C     -1.63255     1.07238     2.58645
C     -1.54439     1.74508     3.91719
O     -1.39259     1.63668     1.53072
O     -1.97844    -0.19029     2.66163
H     -2.06318    -0.57072     1.75594
H     -1.24780     2.77901     3.77933
H     -2.51140     1.68897     4.41664
H     -0.81652     1.22066     4.53219
C     -0.80255    -4.16878     2.26277
C     -1.65692    -5.11393     3.06206
O     -0.59371    -4.26751     1.07841
O     -0.29729    -3.19011     3.02755
H      0.20715    -2.58997     2.45983
H     -2.49151    -4.56814     3.49875
H     -2.02688    -5.90333     2.41745
H     -1.07612    -5.53872     3.87900
C      0.17478     4.48776     1.34813
C     -1.02891     5.23491     0.86001
O      0.42212     4.27553     2.51116
O      0.94872     4.05827     0.34308
H      1.61066     3.46200     0.72338
H     -0.80250     5.76801    -0.05902
H     -1.82375     4.51680     0.65875
H     -1.36666     5.91502     1.63542
C      0.55364     0.88420    -3.38052
C      0.20818     2.20627    -2.77712
O     -0.29247     0.05862    -3.70021
O      1.84198     0.69010    -3.54308
H      2.01801    -0.21566    -3.90834
H      0.57645     2.21699    -1.75490
H      0.70565     3.00194    -3.32714
H     -0.86533     2.34303    -2.78038
