 48
-1375.5397475533323
C     -1.03595    -1.31464    -1.33219
C     -0.26028    -0.22619    -2.00622
O     -2.01519    -1.84669    -1.82721
O     -0.55958    -1.62921    -0.14223
H     -1.14640    -2.29353     0.31258
H      0.80090    -0.37563    -1.83697
H     -0.49290    -0.21010    -3.06535
H     -0.53894     0.72242    -1.55587
C      1.60375    -0.34126     1.69391
C      0.40689     0.29719     2.30800
O      2.26556     0.20148     0.81046
O      1.89446    -1.52116     2.16403
H      2.67920    -1.90863     1.68986
H      0.54662     0.37448     3.38469
H      0.25208     1.27231     1.86400
H     -0.45290    -0.34034     2.12027
C      0.89581     3.08475    -0.74508
C      0.78867     4.36712    -1.50179
O     -0.04517     2.50158    -0.23814
O      2.13751     2.61429    -0.68548
H      2.15522     1.78857    -0.17085
H      0.18744     4.20113    -2.39406
H      0.24957     5.09748    -0.90673
H      1.77574     4.72316    -1.77422
C     -3.06424     4.36318    -0.36233
C     -4.46906     4.81914    -0.07415
O     -2.31315     4.93532    -1.11258
O     -2.74750     3.24831     0.31371
H     -1.83323     2.99029     0.09884
H     -4.43262     5.82731     0.33338
H     -5.01931     4.86750    -1.01138
H     -4.96010     4.14689     0.62063
C      4.69287    -1.99089     0.08508
C      5.92409    -2.61453    -0.50249
O      3.98752    -2.56708     0.89779
O      4.46003    -0.76732    -0.34938
H      3.64993    -0.39026     0.06831
H      6.75016    -2.46142     0.18878
H      5.77319    -3.68251    -0.61840
H      6.16403    -2.14519    -1.45012
C     -3.16600    -3.85436     0.55950
C     -4.00848    -4.83811     1.31836
O     -2.15989    -3.35290     1.04466
O     -3.60292    -3.58960    -0.64888
H     -3.00814    -2.93301    -1.10304
H     -3.39869    -5.70264     1.56989
H     -4.32796    -4.38239     2.25231
H     -4.86554    -5.13806     0.72686
