 48
-1375.5411645328415
C      1.79055     1.85128     0.95202
C      3.12953     1.28462     1.31344
O      1.57650     3.00959     0.69930
O      0.83915     0.90049     0.92985
H     -0.01428     1.30589     0.69453
H      3.08323     0.80099     2.28598
H      3.40955     0.52605     0.58819
H      3.86923     2.07637     1.32403
C      1.70198    -2.12848     1.08473
C      0.40544    -2.47394     1.72928
O      2.75359    -2.06654     1.69661
O      1.62492    -1.90059    -0.21912
H      2.52983    -1.72452    -0.59806
H      0.55501    -2.61936     2.79386
H     -0.30969    -1.67505     1.54716
H     -0.00314    -3.37069     1.27062
C     -4.99728     1.47523     0.94291
C     -6.27086     1.25397     1.70120
O     -4.99174     1.75954    -0.24735
O     -3.90592     1.33176     1.66117
H     -3.09976     1.48655     1.11056
H     -6.05705     1.01364     2.73581
H     -6.88162     2.15106     1.63634
H     -6.82684     0.44798     1.22893
C     -1.76867     2.26373    -0.96056
C     -0.52577     2.69364    -1.66437
O     -1.75708     1.75004     0.15718
O     -2.87521     2.47860    -1.62322
H     -3.68014     2.22684    -1.08803
H     -0.08476     3.52923    -1.12788
H      0.19510     1.88350    -1.61819
H     -0.74487     2.95736    -2.69400
C      5.06879    -1.74720    -0.60730
C      6.37411    -1.70623    -1.34651
O      4.01288    -1.42751    -1.13914
O      5.15876    -2.14216     0.64023
H      4.26036    -2.13903     1.06644
H      6.32875    -2.40219    -2.18103
H      6.51670    -0.71159    -1.76101
H      7.19056    -1.96586    -0.68302
C     -1.82695    -1.66281    -1.26127
C     -3.07937    -1.10244    -1.86700
O     -1.78345    -2.63877    -0.55666
O     -0.74789    -0.92502    -1.57736
H      0.02489    -1.29352    -1.11703
H     -3.44741    -0.29763    -1.23399
H     -2.88450    -0.69218    -2.85239
H     -3.84067    -1.87343    -1.91329
