 56
-1604.8136307683124
C      3.02491     2.17209    -0.93695
C      2.34706     3.47811    -1.22418
O      3.75240     1.96405     0.00362
O      2.72204     1.23113    -1.84486
H      3.18061     0.41310    -1.59553
H      1.30480     3.41666    -0.91400
H      2.83711     4.26907    -0.66596
H      2.37013     3.69074    -2.29014
C     -1.50728    -0.18656    -1.50193
C     -0.34385     0.15984    -2.37125
O     -1.48284    -1.10120    -0.69279
O     -2.55667     0.59078    -1.66071
H     -3.34414     0.20226    -1.19581
H      0.15855     1.02084    -1.94206
H      0.34761    -0.67231    -2.39052
H     -0.67484     0.41630    -3.37454
C     -0.00763     0.89543     1.58918
C      1.20159     0.04960     1.83566
O     -1.00935     0.85090     2.27709
O      0.12114     1.69686     0.54493
H     -4.79593     2.43450    -0.61762
H      0.94010    -0.81846     2.42762
H      1.62998    -0.26190     0.88957
H      1.95424     0.63404     2.35907
C      1.50544    -3.33204    -0.38578
C      0.32807    -4.22287    -0.61925
O      2.09687    -3.27254     0.67979
O      1.83316    -2.59655    -1.43321
H      2.64725    -2.06891    -1.24240
H      0.09678    -4.76547     0.28944
H     -0.51792    -3.61078    -0.91784
H      0.54886    -4.91368    -1.43017
C     -4.47283    -1.02704     0.69467
C     -5.56999    -1.07624     1.71320
O     -4.60346    -0.47864    -0.39151
O     -3.35767    -1.59384     1.08906
H     -2.63832    -1.45069     0.42465
H     -5.53465    -2.01151     2.26360
H     -5.40519    -0.25776     2.41287
H     -6.53293    -0.94442     1.23096
C     -3.16314     2.74409     0.67634
C     -4.43161     3.22047     0.04220
O     -2.05973     3.16567     0.37073
O     -3.34524     1.80445     1.58124
H     -2.46458     1.47893     1.90495
H     -0.67951     2.27897     0.44914
H     -5.18912     3.40441     0.79980
H     -4.24344     4.11839    -0.53636
C      4.62724    -1.17387     0.21293
C      5.86873    -0.37393     0.41901
O      3.97523    -1.14184    -0.83107
O      4.27794    -1.91053     1.23422
H      3.46743    -2.45202     1.03155
H      6.32351    -0.63890     1.36616
H      6.55202    -0.55415    -0.40761
H      5.59901     0.67992     0.40601
