 64
-1834.0718241269024
C     -2.52876    -2.71894    -0.05326
C     -1.95104    -4.09971    -0.05406
O     -2.52841    -1.98765     0.92426
O     -3.01933    -2.36496    -1.22149
H     -3.46776    -1.48812    -1.15109
H     -1.01813    -4.07796    -0.61331
H     -1.76040    -4.42697     0.96258
H     -2.62803    -4.78392    -0.55850
C      2.53402     2.76860     0.55626
C      1.84806     4.02843     0.98455
O      3.23770     2.10956     1.30540
O      2.29714     2.43573    -0.69672
H      2.73085     1.57073    -0.91381
H      1.94742     4.79024     0.21765
H      0.78729     3.82621     1.11978
H      2.26235     4.37382     1.92432
C      1.76815    -3.74839    -3.05613
C      1.97255    -4.29516    -4.44013
O      0.72789    -3.19948    -2.71656
O      2.79965    -3.89757    -2.25519
H      2.57908    -3.54207    -1.35271
H      2.00509    -3.46321    -5.14090
H      2.89665    -4.85955    -4.49201
H      1.12395    -4.91845    -4.70981
C      4.39415    -0.34000    -0.60581
C      5.23029    -1.45571    -1.14045
O      3.42706     0.10887    -1.20532
O      4.77581     0.08650     0.57597
H      4.22741     0.86132     0.87103
H      6.27227    -1.32129    -0.86676
H      4.86878    -2.38019    -0.69267
H      5.10775    -1.52652    -2.21557
C     -4.39230     0.60763     0.12967
C     -5.32472     1.77165     0.26105
O     -4.26122    -0.02626    -0.90275
O     -3.70848     0.35758     1.22910
H     -3.20265    -0.48975     1.14138
H     -6.05090     1.75727    -0.54488
H     -5.81673     1.75583     1.22974
H     -4.73400     2.68322     0.19575
C     -1.82771     3.58448     3.03048
C     -2.24917     4.26742     4.29930
O     -1.82684     4.16477     1.95069
O     -1.47746     2.32965     3.17804
H     -1.15576     1.96299     2.31537
H     -1.70278     5.20149     4.40076
H     -3.30691     4.51316     4.22780
H     -2.07445     3.62442     5.15382
C     -1.23509     1.80252    -0.18719
C     -1.15848     0.92746    -1.38807
O     -0.62589     1.55307     0.84130
O     -2.00789     2.85747    -0.31541
H     -1.96796     3.40292     0.51757
H     -1.31751    -0.09943    -1.08035
H     -1.87589     1.22482    -2.14472
H     -0.14485     0.98007    -1.77760
C      1.39834    -1.99472     0.26429
C      1.38833    -1.14576     1.48425
O      2.21522    -2.88082     0.07630
O      0.44758    -1.70150    -0.59869
H      0.55180    -2.23474    -1.43007
H      2.07800    -1.54233     2.21978
H      1.70099    -0.14288     1.20211
H      0.38181    -1.06768     1.88348
