 56
-1604.7941401890685
C      4.65260     2.66262    -0.90739
C      5.06850     4.10019    -0.81033
O      4.89057     1.83896    -0.03793
O      3.99685     2.38192    -2.01617
H      3.74682     1.42940    -2.03974
H      4.18459     4.73249    -0.85434
H      5.60447     4.26678     0.11594
H      5.69629     4.35469    -1.66111
C     -0.24484     0.05332    -1.80438
C     -1.66552     0.50816    -1.95225
O      0.14343    -0.72675    -0.96282
O      0.56987     0.63665    -2.68624
H      1.47799     0.34136    -2.51520
H     -2.31080    -0.10051    -1.33044
H     -1.74045     1.54547    -1.63188
H     -1.97906     0.45375    -2.99224
C      0.18674     1.69249     1.44880
C      1.66947     1.52809     1.41831
O     -0.37741     2.57201     0.81590
O     -0.45367     0.80910     2.18119
H     -5.36244     3.06128     0.38998
H      1.98766     0.70992     2.05000
H      1.95803     1.32888     0.39033
H      2.15430     2.45372     1.70736
C     -0.34106    -3.90161     0.67863
C     -0.31301    -2.68480     1.54579
O     -1.29153    -4.30986     0.05635
O      0.84795    -4.54837     0.62161
H      0.70138    -5.31467     0.05362
H      0.57305    -2.67167     2.17432
H     -0.31750    -1.80781     0.90354
H     -1.21457    -2.65192     2.14524
C     -4.15028    -1.70071     0.36126
C     -4.30779    -3.13032    -0.04377
O     -4.69006    -0.76447    -0.18169
O     -3.30901    -1.54624     1.39977
H     -3.25991    -0.59753     1.60235
H     -5.16325    -3.22642    -0.70365
H     -3.40579    -3.46007    -0.55541
H     -4.41974    -3.75810     0.83619
C     -3.63270     2.09363     1.14947
C     -5.11208     2.19213     0.98738
O     -3.09084     1.25742     1.87056
O     -2.95162     2.97212     0.45783
H     -1.97443     2.86654     0.60619
H     -1.42357     0.96594     2.12221
H     -5.46052     1.28136     0.50420
H     -5.57618     2.24736     1.96948
C      3.47498    -1.01380    -1.08147
C      2.93570    -2.40434    -1.10741
O      3.28406    -0.21351    -1.99601
O      4.14872    -0.70776    -0.00305
H      4.47382     0.23005    -0.03437
H      3.30206    -2.97404    -0.26151
H      1.85054    -2.34376    -1.05987
H      3.20649    -2.88078    -2.04599
