 48
-1375.5482949627713
C      0.26316    -0.99284     1.76653
C      0.80335    -1.80345     2.89755
O     -0.68448    -1.31844     1.08328
O      0.94777     0.11910     1.55904
H      0.50814     0.64215     0.86197
H      1.75962    -2.22857     2.59921
H      0.97326    -1.17058     3.76425
H      0.11509    -2.60603     3.14249
C      1.88298    -1.54264    -1.25738
C      0.72728    -1.91211    -2.12058
O      2.48779    -0.47696    -1.38176
O      2.19940    -2.42219    -0.34474
H      2.96124    -2.11034     0.21604
H      0.88903    -1.54740    -3.12976
H      0.57685    -2.98537    -2.11680
H     -0.17542    -1.43063    -1.73758
C     -0.18030     1.72868    -1.81447
C     -1.31587     2.43589    -2.46870
O     -0.03616     1.64054    -0.60174
O      0.66248     1.18333    -2.66576
H      1.33105     0.65463    -2.18411
H     -1.63381     3.27115    -1.85546
H     -1.04114     2.75728    -3.46887
H     -2.14762     1.73546    -2.52234
C     -3.33020     2.34298     0.81420
C     -4.31939     2.26125     1.93767
O     -3.62634     2.44697    -0.35231
O     -2.06877     2.25673     1.25104
H     -1.46560     2.20486     0.49003
H     -3.97659     2.83834     2.79227
H     -5.28818     2.61171     1.59673
H     -4.40234     1.21815     2.24289
C      4.66768    -0.50399     1.19994
C      5.74481    -0.10691     2.16285
O      4.13811    -1.60633     1.22998
O      4.34251     0.43471     0.33772
H      3.64901     0.11142    -0.28201
H      6.53768    -0.84968     2.13677
H      6.13075     0.87536     1.91743
H      5.33120    -0.10594     3.16889
C     -3.18484    -0.65634    -1.02430
C     -4.56105    -0.44657    -1.58642
O     -2.17302    -0.64200    -1.68843
O     -3.19076    -0.82155     0.29748
H     -2.27220    -0.99459     0.59187
H     -4.55253    -0.66195    -2.65053
H     -5.28944    -1.07099    -1.07471
H     -4.82896     0.59872    -1.43826
