 48
-1375.549837882132
C      1.71595     0.30319     2.51363
C      2.64342    -0.03438     3.64154
O      0.55757    -0.03238     2.45003
O      2.32957     0.99153     1.54750
H      1.67034     1.20879     0.85839
H      3.30420    -0.83780     3.31647
H      3.25897     0.82287     3.90509
H      2.07568    -0.37211     4.50243
C      1.37630    -2.03097     0.16314
C     -0.03536    -2.42364     0.43988
O      1.69901    -1.36095    -0.81507
O      2.24393    -2.45216     1.04705
H      3.15066    -2.08507     0.87570
H     -0.60843    -2.38360    -0.47826
H     -0.08078    -3.41674     0.87852
H     -0.44726    -1.70454     1.14756
C     -0.22978     1.43624    -1.32341
C     -0.99559     2.50361    -2.03740
O      0.40153     1.62815    -0.30458
O     -0.32511     0.24876    -1.90163
H      0.29909    -0.36497    -1.46207
H     -1.77097     2.05755    -2.64932
H     -1.42937     3.17824    -1.30581
H     -0.31328     3.07275    -2.66862
C     -3.00401     0.61603     0.85858
C     -2.35659     1.01251     2.14189
O     -2.94408    -0.51621     0.40025
O     -3.61679     1.60731     0.24434
H     -3.96608     1.30151    -0.63125
H     -1.46755     1.58994     1.90459
H     -3.03425     1.63197     2.72366
H     -2.04696     0.13475     2.69262
C      4.78431    -0.34360     0.04865
C      5.79495     0.71290     0.36194
O      4.60601    -1.32741     0.74918
O      4.09450    -0.09941    -1.04902
H      3.30363    -0.67667    -1.07088
H      6.60785     0.29531     0.94677
H      6.16049     1.16836    -0.55275
H      5.29103     1.47755     0.95306
C     -4.51808    -0.39323    -2.48204
C     -5.20293    -0.78153    -3.76000
O     -4.34824     0.77791    -2.16764
O     -4.11541    -1.40610    -1.75156
H     -3.66743    -1.08085    -0.92249
H     -4.63596    -0.38027    -4.59666
H     -5.27823    -1.85959    -3.83689
H     -6.18949    -0.32537    -3.78584
