 72
-2063.324300323393
C      2.69141    -3.89989     2.39209
C      4.04362    -3.74907     1.79276
O      1.65696    -3.86684     1.73733
O      2.68118    -4.08358     3.69852
H      1.77491    -3.93079     4.02919
H      4.81183    -3.86793     2.54772
H      4.15904    -4.47900     0.99485
H      4.10212    -2.76662     1.32669
C      0.00382     1.58240    -4.05651
C     -1.44595     1.40565    -3.73793
O      0.68485     2.46216    -3.53401
O      0.48381     0.73748    -4.92607
H      1.44930     0.90211    -5.11159
H     -1.92144     2.37504    -3.63831
H     -1.94226     0.80499    -4.49259
H     -1.53921     0.90790    -2.77466
C     -2.81509    -0.27005     0.14699
C     -1.70202    -1.22410    -0.10957
O     -3.36590     0.38910    -0.72377
O     -3.15612    -0.20283     1.41602
H     -3.86554     0.47575     1.55926
H     -1.44224    -1.22246    -1.15955
H     -0.83914    -0.92387     0.47126
H     -2.00070    -2.21953     0.20051
C     -0.73590    -2.68695     3.75650
C     -2.01741    -2.17496     4.32728
O      0.29922    -2.79659     4.39826
O     -0.82088    -3.02253     2.48414
H      0.04877    -3.34149     2.15699
H     -2.81427    -2.88326     4.11693
H     -1.89887    -2.02668     5.39431
H     -2.27011    -1.23241     3.84926
C     -5.65179     2.18590     0.83371
C     -6.79807     3.11483     1.11313
O     -5.00178     1.67097     1.73205
O     -5.41745     1.98640    -0.44375
H     -4.65772     1.35871    -0.57266
H     -6.45056     3.92583     1.74800
H     -7.20640     3.50191     0.18691
H     -7.56193     2.57381     1.66693
C      2.11029    -1.53129    -0.95720
C      1.67805    -0.56070    -2.00953
O      3.18639    -1.52013    -0.40377
O      1.16070    -2.43192    -0.66775
H      1.47096    -2.96998     0.07957
H      1.24340    -1.09671    -2.84783
H      0.93228     0.11439    -1.59915
H      2.54175     0.00607    -2.33809
C      3.79331     1.84871    -4.75876
C      5.27737     1.90365    -4.95572
O      3.07237     1.04939    -5.33458
O      3.34381     2.74826    -3.90674
H      2.36877     2.67230    -3.79977
H      5.58920     1.10313    -5.61488
H      5.54750     2.86688    -5.38290
H      5.77692     1.82019    -3.99364
C     -0.75949     2.55403    -0.33161
C     -1.53722     2.99071     0.87178
O     -0.20292     1.48209    -0.42340
O     -0.76305     3.45754    -1.31408
H     -0.24695     3.10691    -2.06540
H     -1.40239     4.05175     1.06130
H     -2.59589     2.81666     0.68945
H     -1.22975     2.39682     1.72344
C      1.58122     0.13751     2.83366
C      2.50995     1.07207     2.11709
O      0.38248     0.25211     2.89858
O      2.25612    -0.87625     3.41082
H      1.62807    -1.43586     3.89867
H      1.94028     1.68547     1.42861
H      3.01299     1.70778     2.84734
H      3.25805     0.49299     1.58342
