 80
-2292.589571339918
C      2.72980    -1.40258    -0.31609
C      1.46070    -2.10180    -0.66141
O      3.75662    -1.55054    -0.95571
O      2.64376    -0.60241     0.73002
H      3.51669    -0.18371     0.92304
H      0.71967    -1.95067     0.11249
H      1.09084    -1.70210    -1.60237
H      1.67547    -3.15694    -0.80490
C     -6.53136     1.47663    -0.05314
C     -7.27393     2.56270    -0.76326
O     -6.13426     1.59084     1.09818
O     -6.32099     0.40679    -0.78496
H     -5.82415    -0.27692    -0.25970
H     -8.01875     2.14421    -1.43318
H     -7.72900     3.23675    -0.04625
H     -6.55970     3.12399    -1.36379
C     -1.62204    -3.29858    -1.28537
C     -2.33378    -2.15111    -1.92919
O     -1.65604    -3.49638    -0.07719
O     -0.97260    -4.07556    -2.11778
H     -0.53571    -4.82538    -1.63523
H     -2.28871    -2.22880    -3.01096
H     -3.36396    -2.13038    -1.58429
H     -1.86818    -1.22024    -1.61433
C      3.94632     3.89375     0.74350
C      3.20668     5.19724     0.77720
O      4.73024     3.57472    -0.11998
O      3.62257     3.09297     1.76590
H      4.11279     2.26241     1.65718
H      2.99247     5.48872     1.80152
H      3.78882     5.95902     0.26840
H      2.26202     5.07197     0.24561
C      0.52607    -5.96089     0.41467
C      1.46052    -6.92572     1.08547
O      0.30939    -5.97597    -0.78684
O     -0.02847    -5.09897     1.24061
H     -0.66892    -4.51429     0.76037
H      2.18977    -6.37875     1.67841
H      0.89431    -7.56187     1.76275
H      1.95761    -7.53373     0.33922
C     -4.23071    -1.04481     1.58554
C     -3.21819    -1.98699     2.13912
O     -4.95410    -1.32095     0.64644
O     -4.27958     0.13317     2.19534
H     -5.01233     0.69950     1.82002
H     -3.39218    -2.98436     1.75780
H     -2.23342    -1.66769     1.80324
H     -3.24214    -1.95594     3.22458
C     -1.99188     2.30039    -1.45821
C     -3.42399     2.25547    -1.02707
O     -1.54155     1.56582    -2.32122
O     -1.27328     3.18350    -0.80272
H     -0.32649     3.15155    -1.09619
H     -4.01973     1.79421    -1.80345
H     -3.47688     1.64936    -0.12837
H     -3.79257     3.24723    -0.79189
C     -0.86531     0.95445     1.87955
C      0.42851     1.69769     2.02299
O     -1.12013     0.21062     0.95693
O     -1.72734     1.19358     2.87334
H     -2.57127     0.73341     2.70544
H      0.38766     2.58311     1.39470
H      0.60583     2.00056     3.05037
H      1.23885     1.07475     1.66705
C      5.92937     0.61173     0.34048
C      7.11677     1.49634     0.52404
O      4.98754     0.59316     1.13356
O      5.95882    -0.11613    -0.74405
H      5.15592    -0.69934    -0.82064
H      7.35941     1.56933     1.57966
H      7.95646     1.12753    -0.05469
H      6.83415     2.48771     0.17089
C      1.73107     2.01626    -2.13014
C      3.20829     1.85952    -2.28562
O      1.23449     2.97178    -1.55105
O      1.02431     1.02165    -2.62472
H      0.04875     1.19625    -2.52592
H      3.65420     2.77835    -2.64884
H      3.62593     1.69180    -1.29949
H      3.44609     1.02595    -2.93337
