 48
-1375.538371880036
C      1.28400     2.41393     1.34624
C      0.18787     3.37546     1.69690
O      2.45374     2.68979     1.26114
O      0.80496     1.17648     1.13073
H      1.53653     0.60086     0.85364
H     -0.37173     3.63838     0.80220
H     -0.50725     2.90623     2.38564
H      0.61230     4.27513     2.12913
C      2.40518    -4.02076    -1.18068
C      1.76261    -5.24400    -1.74629
O      1.74385    -3.05821    -0.79511
O      3.70764    -4.05094    -1.13490
H      4.07655    -3.19508    -0.77817
H      1.36595    -4.99739    -2.72922
H      2.47627    -6.05776    -1.81730
H      0.91474    -5.51530    -1.12327
C     -2.44679     1.10479     0.51329
C     -2.19619    -0.32892     0.16526
O     -2.77190     1.45326     1.63875
O     -2.29315     1.93687    -0.49119
H     -2.56484     2.85742    -0.23466
H     -3.15406    -0.83977     0.07064
H     -1.64882    -0.40488    -0.76514
H     -1.64456    -0.80266     0.97031
C     -3.41297     4.69911     1.34457
C     -3.82963     6.10678     1.65629
O     -2.99674     4.38095     0.23942
O     -3.52137     3.86399     2.35208
H     -3.25929     2.93971     2.08635
H     -4.61243     6.40492     0.96357
H     -4.17719     6.17718     2.67993
H     -2.98261     6.76884     1.49431
C      4.04867    -0.79179     0.14353
C      4.67114     0.47887     0.60073
O      4.68523    -1.77261    -0.19259
O      2.72036    -0.76608     0.12956
H      2.35645    -1.61847    -0.21675
H      4.44018     1.26604    -0.11279
H      4.23626     0.78314     1.54718
H      5.74439     0.34993     0.68336
C     -1.60241    -3.32362    -2.31166
C     -3.09794    -3.20314    -2.31474
O     -0.91242    -3.47439    -3.28708
O     -1.10837    -3.24578    -1.06373
H     -0.13758    -3.26961    -1.11311
H     -3.47863    -3.40341    -3.31002
H     -3.53184    -3.89497    -1.59575
H     -3.37957    -2.19541    -2.01802
