 48
-1375.5396410538608
C     -1.39505    -1.10821     0.84618
C     -0.28854    -0.14965     1.14381
O     -1.63305    -1.49987    -0.28989
O     -2.07194    -1.49643     1.89980
H     -2.77285    -2.15373     1.65023
H      0.02048     0.32710     0.22479
H     -0.60269     0.58909     1.87248
H      0.55146    -0.70641     1.55705
C      1.71479    -1.95112    -1.55446
C      0.92694    -2.69397    -2.58334
O      1.94341    -0.74738    -1.63584
O      2.11258    -2.68791    -0.54954
H      2.61673    -2.14984     0.12275
H     -0.09288    -2.78970    -2.21207
H      0.91827    -2.13564    -3.51185
H      1.33638    -3.68932    -2.72364
C      0.54228     2.55481    -2.01416
C      0.17280     3.89424    -2.55709
O      0.38652     2.21829    -0.85628
O      1.06762     1.73275    -2.92141
H      1.29035     0.89077    -2.49065
H      0.55341     4.66585    -1.89551
H      0.54536     4.00916    -3.56858
H     -0.91176     3.98496    -2.54023
C     -0.59920     4.51127     1.40277
C     -0.91461     5.26385     2.66894
O     -0.60924     5.01170     0.30601
O     -0.30700     3.22644     1.64731
H     -0.09609     2.78062     0.80372
H     -0.90353     4.59989     3.52624
H     -0.17878     6.05494     2.79587
H     -1.88875     5.73492     2.56301
C      3.67354    -0.08912     1.21943
C      4.43476     0.62384     2.29493
O      3.37063    -1.27090     1.28548
O      3.35406     0.68578     0.20105
H      2.83934     0.18565    -0.47094
H      4.64673    -0.05678     3.11083
H      5.36118     1.01747     1.88291
H      3.84859     1.46830     2.65118
C     -4.05369    -3.76969     0.08016
C     -5.04680    -4.85641    -0.21740
O     -3.92541    -3.30516     1.20169
O     -3.35159    -3.38415    -0.96443
H     -2.70814    -2.66708    -0.71589
H     -4.77450    -5.74263     0.35103
H     -6.02942    -4.54063     0.12287
H     -5.05926    -5.07751    -1.27829
