 80
-2292.5814602181686
C      5.26727     1.98001    -2.50194
C      5.70661     2.44975    -3.84312
O      5.60601     0.90132    -2.02283
O      4.46692     2.81488    -1.87519
H      4.16426     2.45161    -1.01461
H      5.03215     2.01362    -4.57743
H      5.64455     3.53090    -3.89581
H      6.71185     2.09434    -4.04428
C     -4.36196     0.83494    -0.37440
C     -5.67520     0.76958    -1.08555
O     -3.31922     1.15303    -0.91043
O     -4.43862     0.49033     0.89906
H     -3.58327     0.65494     1.35607
H     -6.39355     1.41606    -0.58504
H     -5.55444     1.07749    -2.11836
H     -6.04530    -0.25212    -1.04232
C     -5.65599    -3.16280     1.86681
C     -6.61831    -3.45849     2.98224
O     -4.46354    -3.42372     1.93569
O     -6.21249    -2.58253     0.82525
H     -5.54626    -2.46431     0.09895
H     -6.99897    -2.51899     3.37936
H     -7.46390    -4.02439     2.60015
H     -6.11202    -4.01191     3.76433
C      0.03728     1.30779    -1.35437
C      1.42982     1.85428    -1.26270
O     -0.25941     0.35330    -2.03439
O     -0.83120     1.96745    -0.58703
H     -1.74707     1.61595    -0.71160
H      2.02109     1.47754    -2.08894
H      1.41962     2.93959    -1.28197
H      1.87674     1.52755    -0.32851
C     -3.21250    -2.34391    -0.96187
C     -2.27223    -2.13727    -2.09574
O     -4.42657    -2.29233    -1.09041
O     -2.63688    -2.56656     0.20998
H     -3.30445    -2.87534     0.87478
H     -1.87470    -1.12429    -2.04860
H     -1.43810    -2.82624    -2.01708
H     -2.80244    -2.27066    -3.03353
C      1.17520    -2.39014     0.14907
C      0.29039    -2.35889     1.35994
O      1.06571    -3.17740    -0.75452
O      2.11644    -1.42010     0.16275
H      2.54928    -1.42364    -0.70886
H     -0.43440    -3.15891     1.30698
H      0.88688    -2.42850     2.26598
H     -0.23846    -1.40904     1.38336
C      2.87769    -0.60713    -3.53935
C      1.68902    -1.44641    -3.85437
O      3.28972     0.29771    -4.21861
O      3.46335    -0.93487    -2.35575
H      4.29751    -0.43798    -2.27603
H      0.82776    -1.01362    -3.34789
H      1.51166    -1.42976    -4.92649
H      1.82347    -2.46047    -3.49197
C     -1.82176     0.22884     3.11207
C     -2.67218    -0.90239     3.58971
O     -2.19137     1.04827     2.28780
O     -0.62150     0.25537     3.65727
H     -0.06045     0.94333     3.23116
H     -2.45348    -1.15849     4.62287
H     -3.71837    -0.64309     3.47504
H     -2.47984    -1.77441     2.96812
C      4.52480     0.77612     1.18691
C      4.19210     0.31348     2.56217
O      4.04761     1.79103     0.68902
O      5.37302     0.00960     0.54127
H      5.52625     0.35236    -0.36701
H      4.74247    -0.58664     2.80876
H      4.41318     1.11168     3.26584
H      3.12025     0.13423     2.60414
C      1.00424     2.97426     1.99107
C     -0.27806     3.72961     2.10165
O      1.18628     1.85997     2.44753
O      1.95342     3.63632     1.33606
H      2.73386     3.05990     1.25534
H     -0.81257     3.41343     2.99047
H     -0.08949     4.79937     2.11158
H     -0.89483     3.47771     1.24147
