 72
-2063.3320546461887
C      5.14037     2.09480     1.77084
C      6.33999     2.95878     2.00206
O      4.71311     1.33296     2.62608
O      4.58941     2.24752     0.58706
H      3.74460     1.75048     0.53419
H      6.05574     3.76180     2.67879
H      7.12218     2.37984     2.48376
H      6.68636     3.37946     1.06527
C      0.12026     3.93574    -0.05193
C     -0.57923     4.29495    -1.31874
O     -0.44497     3.36458     0.88052
O      1.37951     4.26795    -0.00260
H      1.75254     4.07459     0.89405
H     -0.02031     5.04911    -1.86253
H     -0.66482     3.39737    -1.92707
H     -1.58616     4.63934    -1.10506
C      1.72452     3.36787     3.37365
C      2.36302     3.19319     4.71071
O      2.31460     3.84691     2.42017
O      0.48937     2.92255     3.30601
H      0.11205     3.10063     2.40918
H      3.20635     3.86934     4.79687
H      1.64599     3.35354     5.50998
H      2.72822     2.16870     4.76828
C     -3.74766    -4.40445    -0.05480
C     -5.21375    -4.23537    -0.29514
O     -3.11635    -5.35591    -0.49225
O     -3.20991    -3.43370     0.64972
H     -2.22360    -3.53231     0.68309
H     -5.68981    -3.79309     0.57437
H     -5.33196    -3.55369    -1.13605
H     -5.65869    -5.19173    -0.54447
C     -2.89184     0.97692    -0.43567
C     -3.57325    -0.35024    -0.47061
O     -2.70504     1.67702    -1.40711
O     -2.45154     1.31884     0.78489
H     -1.98102     2.16174     0.70714
H     -4.42827    -0.30217    -1.13684
H     -2.88797    -1.08041    -0.89438
H     -3.86796    -0.67816     0.51963
C     -0.00068    -4.26177    -0.33983
C      1.41149    -3.94307    -0.70977
O     -0.59457    -3.68778     0.56064
O     -0.55210    -5.19638    -1.08464
H     -1.50464    -5.31210    -0.82826
H      1.93504    -3.55729     0.15851
H      1.91019    -4.81543    -1.11916
H      1.38357    -3.16145    -1.46853
C      0.07474     0.41393    -2.32788
C     -0.61970     0.77548    -3.60026
O      0.00524    -0.67900    -1.79443
O      0.76774     1.41766    -1.79666
H      1.22802     1.11969    -0.98812
H     -0.64510    -0.08700    -4.25888
H     -1.64033     1.05394    -3.34163
H     -0.12590     1.61464    -4.08220
C     -2.21060    -3.16016    -3.31421
C     -2.48626    -4.41767    -4.07918
O     -3.04908    -2.53495    -2.71189
O     -0.91417    -2.82829    -3.35029
H     -0.76368    -2.01131    -2.83799
H     -3.52932    -4.43740    -4.37915
H     -1.83426    -4.50021    -4.94433
H     -2.29777    -5.26510    -3.42078
C      1.70494     0.39573     1.51085
C      0.32499    -0.15411     1.49088
O      2.23786     0.92595     0.53805
O      2.31261     0.28316     2.66239
H      3.24501     0.62680     2.61312
H     -0.00341    -0.22352     0.46099
H      0.28065    -1.12886     1.96609
H     -0.33805     0.53056     2.01595
