 48
-1375.5463511820462
C     -0.94314    -0.55376     1.66757
C     -1.90863    -0.04221     2.68160
O     -1.24666    -1.12835     0.64211
O      0.32511    -0.31571     1.99284
H      0.88757    -0.70769     1.30823
H     -1.60841    -0.37095     3.67458
H     -1.89740     1.04554     2.66201
H     -2.90121    -0.40021     2.43585
C      2.10672    -1.35816    -1.17126
C      0.80514    -1.79367    -1.74844
O      2.31642    -1.30647     0.04013
O      3.00764    -1.01739    -2.05809
H      3.84367    -0.71137    -1.61416
H      0.36388    -2.57159    -1.13470
H      0.12715    -0.94040    -1.71771
H      0.93814    -2.12156    -2.77362
C      0.81397     2.00671    -0.32326
C      2.29975     2.12636    -0.42853
O      0.15668     1.32807    -1.10135
O      0.29354     2.66847     0.67821
H     -0.69698     2.58606     0.66913
H      2.64499     3.09503    -0.08428
H      2.75894     1.35819     0.18989
H      2.59655     1.94974    -1.45475
C     -3.00093     2.02350    -0.30859
C     -4.48273     2.18143    -0.34028
O     -2.31179     2.46184     0.60256
O     -2.50220     1.35028    -1.32256
H     -1.51672     1.30993    -1.26047
H     -4.90790     1.29741     0.13596
H     -4.77072     3.06378     0.22252
H     -4.83590     2.22823    -1.36556
C      5.53173    -0.45497     0.27053
C      6.91073    -0.17245     0.78379
O      5.16014    -0.08934    -0.83548
O      4.76812    -1.12496     1.10866
H      3.86627    -1.24448     0.72777
H      7.11006     0.89188     0.69454
H      7.00755    -0.49789     1.81269
H      7.63014    -0.69209     0.15530
C     -4.66454    -1.67985    -0.10426
C     -5.89146    -2.36749    -0.63335
O     -4.69096    -0.80196     0.72761
O     -3.54324    -2.12827    -0.66750
H     -2.78338    -1.67907    -0.26108
H     -6.41822    -2.84110     0.19286
H     -6.55721    -1.61618    -1.05407
H     -5.62793    -3.10253    -1.38553
