 72
-2063.3258622421417
C      3.04933    -3.68165     1.97315
C      4.30421    -3.40389     1.21427
O      1.99495    -3.99451     1.42095
O      3.15826    -3.55078     3.27074
H      2.29790    -3.75767     3.72687
H      4.36359    -4.06271     0.35346
H      4.24169    -2.37605     0.85441
H      5.16823    -3.51303     1.86107
C     -0.33853     2.81605    -3.95978
C     -1.77462     2.93828    -3.56343
O      0.59666     3.14494    -3.23611
O     -0.16908     2.32185    -5.16402
H      0.79273     2.21156    -5.38657
H     -2.26633     3.62970    -4.24530
H     -2.26276     1.97279    -3.65531
H     -1.85889     3.29453    -2.54531
C     -2.66613    -1.39635     0.19534
C     -2.39188    -2.86319     0.29670
O     -2.70725    -0.80706    -0.86683
O     -2.84582    -0.78725     1.35901
H     -3.17994     0.14851     1.20859
H     -2.08183    -3.11471     1.30416
H     -3.30156    -3.40937     0.04602
H     -1.62158    -3.13124    -0.41917
C     -0.20527    -4.23756     3.91232
C     -1.46916    -4.42303     4.69019
O      0.87516    -4.05697     4.44963
O     -0.36131    -4.27064     2.60296
H      0.51405    -4.17528     2.14935
H     -1.23804    -4.81081     5.67701
H     -1.94716    -3.45075     4.79997
H     -2.14902    -5.08271     4.15930
C     -4.09009     2.08724    -0.15188
C     -4.78988     3.40179    -0.24391
O     -3.79109     1.56800     0.91727
O     -3.80557     1.54176    -1.31278
H     -3.33939     0.67980    -1.17768
H     -5.26478     3.63224     0.70360
H     -4.03934     4.15884    -0.46453
H     -5.51453     3.38629    -1.05293
C      1.62843    -0.94663    -0.34043
C      0.91131     0.22290    -0.92939
O      2.62252    -0.87372     0.34265
O      1.04211    -2.12317    -0.62659
H      1.54606    -2.81680    -0.17515
H      0.04788    -0.10734    -1.49545
H      0.60520     0.87708    -0.12015
H      1.59707     0.78568    -1.56047
C      3.35770     2.11512    -5.03462
C      4.77403     1.77329    -5.38911
O      2.41877     1.95907    -5.79590
O      3.23421     2.60197    -3.81175
H      2.29614     2.81900    -3.61925
H      5.38820     2.66858    -5.32563
H      5.16339     1.05483    -4.67170
H      4.80931     1.36400    -6.39098
C     -0.69593     3.79729     0.16248
C     -0.71217     3.52233     1.63306
O     -1.66918     4.08424    -0.49895
O      0.52751     3.68981    -0.35814
H      0.46620     3.76460    -1.32166
H     -1.63603     3.01669     1.89471
H      0.13966     2.91279     1.90346
H     -0.66754     4.47561     2.16114
C      0.04559    -0.28622     2.98189
C      1.27252    -0.38716     3.83655
O     -0.07505     0.45856     2.03955
O     -0.91829    -1.13992     3.36226
H     -1.66036    -1.04077     2.73687
H      1.15149    -1.15511     4.59210
H      2.12271    -0.61311     3.19729
H      1.45852     0.57591     4.31021
