 48
-1375.5383968695598
C      1.96190     2.01438     2.46549
C      1.09735     3.20748     2.75127
O      2.71847     1.49042     3.24318
O      1.80095     1.57062     1.20089
H      2.36043     0.78611     1.08191
H      1.30771     3.98719     2.02172
H      0.04893     2.94242     2.65117
H      1.30257     3.56406     3.75466
C      2.32039    -3.44755    -1.82683
C      1.57668    -4.18440    -2.89091
O      1.92576    -2.37175    -1.37868
O      3.40817    -4.03314    -1.40977
H      3.84059    -3.51005    -0.67972
H      2.18657    -4.97841    -3.30822
H      0.66791    -4.59248    -2.45265
H      1.26890    -3.47868    -3.65746
C     -1.84706     1.97685    -0.33713
C     -0.58652     1.42948    -0.92023
O     -2.94865     1.75516    -0.81929
O     -1.66226     2.70718     0.74214
H     -2.53282     3.00134     1.12666
H     -0.34196     0.51672    -0.38281
H     -0.75088     1.17913    -1.95927
H      0.23018     2.12749    -0.78997
C     -5.07566     3.01123     1.41347
C     -6.33889     3.34033     2.15470
O     -3.98335     3.41762     1.78496
O     -5.25295     2.26031     0.35075
H     -4.38717     2.06967    -0.09953
H     -7.19432     2.89798     1.65760
H     -6.25618     2.96794     3.17295
H     -6.44499     4.42089     2.21034
C      4.22226    -1.55135     0.95013
C      4.94991    -0.81248     2.01677
O      4.55903    -2.64232     0.53289
O      3.16096    -0.90378     0.47788
H      2.69870    -1.44569    -0.20865
H      4.25593    -0.51098     2.79517
H      5.74395    -1.43418     2.41556
H      5.36928     0.09636     1.58947
C     -1.66211    -2.14162    -2.24831
C     -2.88439    -1.42803    -2.74528
O     -1.64504    -3.24191    -1.75973
O     -0.55142    -1.39411    -2.41617
H      0.20965    -1.89124    -2.07107
H     -2.70767    -1.03646    -3.74552
H     -3.72527    -2.11403    -2.75152
H     -3.10678    -0.58505    -2.09312
