 72
-2063.321025997512
C      1.33370    -2.81827     0.51520
C      1.27899    -3.73666     1.69723
O      1.28269    -3.17410    -0.63401
O      1.41968    -1.52331     0.87645
H      1.47220    -0.99417     0.06605
H      1.78885    -3.30918     2.55311
H      0.23745    -3.89000     1.96876
H      1.69859    -4.70232     1.43596
C     -1.67149     3.36720     0.73152
C     -3.01532     3.73278     0.19752
O     -0.70522     3.13272     0.00887
O     -1.60487     3.29129     2.03733
H     -0.68590     3.05972     2.32730
H     -3.57700     4.29441     0.93593
H     -2.89833     4.28636    -0.72898
H     -3.53540     2.80217    -0.02777
C      1.78147     2.32519     1.98912
C      3.02175     1.62253     2.43591
O      0.82503     2.52041     2.71843
O      1.81746     2.71527     0.72514
H      0.91677     2.95054     0.40719
H      3.88168     2.03456     1.92082
H      3.12504     1.71422     3.51321
H      2.93389     0.56965     2.17609
C     -2.30923    -5.40240     2.89560
C     -2.61975    -6.86697     3.00205
O     -1.63283    -4.82543     3.73700
O     -2.81284    -4.81418     1.83588
H     -2.57622    -3.84909     1.82108
H     -1.68714    -7.42142     3.07048
H     -3.17087    -7.04325     3.92279
H     -3.19751    -7.19556     2.14610
C      1.85567     0.02137    -2.49487
C      1.22416    -1.17372    -3.11268
O      2.52048    -0.03271    -1.47025
O      1.66468     1.16166    -3.13654
H      2.28703     1.86343    -2.79296
H      0.41279    -1.49837    -2.46989
H      0.84489    -0.93935    -4.09903
H      1.94356    -1.98840    -3.13756
C     -1.70998    -1.65158     2.77483
C     -1.59866    -0.16297     2.76694
O     -2.15722    -2.28529     1.82814
O     -1.26525    -2.21273     3.87431
H     -1.41533    -3.19466     3.85567
H     -0.73493     0.15655     3.33590
H     -1.53308     0.19103     1.74401
H     -2.49098     0.28096     3.20200
C      4.24037     2.77031    -1.43307
C      5.12567     3.88814    -0.97438
O      3.38231     2.91420    -2.28731
O      4.46760     1.62659    -0.81895
H      3.78196     0.96402    -1.07593
H      4.62914     4.39906    -0.15172
H      6.07290     3.49631    -0.61932
H      5.27424     4.59958    -1.77948
C     -1.85525     1.30134    -4.01147
C     -3.25002     1.81354    -4.22950
O     -1.54825     0.13431    -4.00223
O     -0.97799     2.29091    -3.79457
H     -0.10521     1.90374    -3.61844
H     -3.69740     1.99655    -3.25274
H     -3.22997     2.74787    -4.78373
H     -3.83671     1.06408    -4.74990
C     -1.84031    -0.05018    -0.95045
C     -2.02356    -1.49131    -1.27235
O     -2.72270     0.75168    -0.77817
O     -0.53899     0.30495    -0.84101
H     -0.50164     1.26011    -0.66928
H     -1.87758    -1.63134    -2.34270
H     -1.29892    -2.08850    -0.72651
H     -3.02798    -1.79506    -0.99356
