 80
-2292.5848134447965
C      3.53420    -1.82984     0.74224
C      2.98707    -3.20214     0.98800
O      3.69014    -1.00371     1.62796
O      3.82416    -1.61392    -0.51981
H      4.13035    -0.68104    -0.65342
H      3.72599    -3.80978     1.50418
H      2.11108    -3.14049     1.62439
H      2.73588    -3.67425     0.04634
C     -1.84644     4.58536     0.03363
C     -0.68991     5.40168     0.49236
O     -1.82971     3.93051    -1.01349
O     -2.88976     4.60648     0.81627
H     -3.67165     4.14529     0.40788
H     -1.03052     6.22210     1.11431
H     -0.01469     4.77851     1.08277
H     -0.13585     5.76045    -0.36865
C     -0.59916    -4.46823     0.08009
C     -1.85924    -3.82526     0.54646
O     -0.09941    -4.23299    -1.02241
O     -0.04996    -5.28741     0.93816
H      0.75142    -5.73695     0.55658
H     -2.30746    -4.40794     1.34375
H     -1.63383    -2.82185     0.90891
H     -2.53265    -3.70692    -0.29437
C      2.01910     3.40015     2.98407
C      3.05913     3.58012     4.05884
O      1.78201     4.22415     2.13002
O      1.39823     2.22486     3.07134
H      0.75014     2.16798     2.33826
H      3.91960     2.95279     3.83094
H      3.36993     4.61970     4.09104
H      2.66379     3.27199     5.02413
C      2.41244    -6.49409    -1.21621
C      3.55005    -7.32581    -1.72343
O      2.11149    -6.44862    -0.03285
O      1.77861    -5.81806    -2.15342
H      1.05771    -5.27126    -1.76110
H      3.38381    -8.36178    -1.43968
H      3.63680    -7.23211    -2.79920
H      4.46572    -6.99802    -1.23777
C      0.03837     1.45545     0.08274
C      0.90513     0.25071     0.20901
O     -0.31337     2.14591     1.01854
O     -0.35316     1.69296    -1.15901
H     -0.89476     2.50919    -1.16980
H      1.51980     0.14456    -0.67699
H      1.52979     0.31296     1.09013
H      0.25104    -0.61488     0.29745
C     -2.94487     0.09006     1.12065
C     -3.20841     1.14584     2.15434
O     -2.01139    -0.67713     1.15378
O     -3.83641     0.10532     0.12349
H     -3.55640    -0.55911    -0.54011
H     -3.17106     0.70352     3.14716
H     -2.41062     1.88352     2.08529
H     -4.16608     1.62375     1.98192
C     -4.96130     2.67541    -1.23802
C     -6.08399     1.76229    -1.60730
O     -4.99127     3.42987    -0.28041
O     -3.91252     2.58413    -2.04410
H     -3.18029     3.15475    -1.71466
H     -5.83142     0.75908    -1.26794
H     -6.99770     2.08809    -1.12285
H     -6.20453     1.73444    -2.68680
C      4.30538     1.81941    -0.02093
C      4.44531     3.27005    -0.36340
O      4.43315     0.93266    -0.84879
O      4.04170     1.59908     1.25176
H      3.92331     0.63226     1.43050
H      3.59782     3.82528     0.02737
H      5.34850     3.65927     0.10442
H      4.51931     3.38216    -1.43939
C     -1.87964    -1.23710    -2.40368
C     -1.99143    -0.07388    -3.33634
O     -2.78457    -1.62737    -1.68817
O     -0.69166    -1.81804    -2.43266
H     -0.68217    -2.62549    -1.88509
H     -1.00819     0.32954    -3.55561
H     -2.45704    -0.41018    -4.26244
H     -2.62134     0.68279    -2.88144
