 48
-1375.540605134997
C     -0.15020    -1.30307     2.22663
C      0.55857    -2.46875     2.84294
O     -0.60506    -0.36576     2.83626
O     -0.22269    -1.39978     0.88951
H     -0.76873    -0.66942     0.56334
H      0.11027    -3.39990     2.50283
H      1.59833    -2.46276     2.52044
H      0.50689    -2.39837     3.92410
C      4.58159    -2.22333    -0.86535
C      5.29202    -3.37494    -1.51520
O      4.11943    -2.30433     0.26472
O      4.50801    -1.14490    -1.61036
H      4.01705    -0.41923    -1.13831
H      5.61180    -3.10664    -2.51519
H      6.14723    -3.65196    -0.90337
H      4.62228    -4.23090    -1.54509
C      0.37126     1.91532    -2.28147
C      1.40019     2.04161    -3.35549
O      0.14248     2.79102    -1.46404
O     -0.25297     0.74938    -2.27363
H     -0.91337     0.72717    -1.55445
H      1.15954     1.37912    -4.17981
H      1.46342     3.07502    -3.68143
H      2.36098     1.75192    -2.93337
C     -2.11324     1.62366     0.79323
C     -3.00541     1.57880     1.97823
O     -2.04325     0.72375    -0.05191
O     -1.36677     2.69502     0.71261
H     -0.81828     2.70690    -0.11651
H     -2.53523     0.91638     2.70581
H     -3.10622     2.57442     2.39681
H     -3.96695     1.15787     1.69919
C      2.80284     0.72129     0.80005
C      2.14560     1.87804     1.48327
O      3.20059     0.77498    -0.35458
O      2.90417    -0.34790     1.55776
H      3.35102    -1.09200     1.07226
H      2.80476     2.25390     2.26428
H      1.95404     2.65642     0.75412
H      1.22146     1.54373     1.94476
C     -5.52140    -0.61859    -0.39657
C     -6.68493    -1.31359    -1.04229
O     -5.57442    -0.04063     0.66113
O     -4.40226    -0.70611    -1.13049
H     -3.69253    -0.24259    -0.66167
H     -7.08796    -2.04119    -0.34173
H     -7.46561    -0.57986    -1.23122
H     -6.38844    -1.79682    -1.96669
