 72
-2063.3271005465544
C      5.91044    -2.00211     0.40909
C      6.70893    -3.17430    -0.07644
O      5.50584    -1.13981    -0.35752
O      5.68724    -1.99027     1.70152
H      5.17730    -1.17361     1.96396
H      7.61023    -2.80939    -0.56301
H      6.96263    -3.83429     0.74542
H      6.13122    -3.70730    -0.82739
C      0.46928     1.94301    -1.61490
C      1.02550     0.57664    -1.79408
O      0.33541     2.45627    -0.50294
O      0.14931     2.57404    -2.71030
H     -0.13274     3.51151    -2.50952
H      0.82847     0.01049    -0.89280
H      0.57726     0.08759    -2.65105
H      2.10140     0.65506    -1.93002
C     -3.20745     0.02676    -2.43591
C     -3.27665     1.35538    -3.13157
O     -4.15889    -0.68185    -2.22393
O     -1.95949    -0.28049    -2.04765
H     -1.96937    -1.16957    -1.64338
H     -2.56203     1.39103    -3.95196
H     -4.28396     1.51825    -3.50206
H     -3.01014     2.14740    -2.43509
C     -2.64173    -3.47809    -0.08991
C     -4.11734    -3.56905    -0.25852
O     -1.92010    -2.81601    -0.83625
O     -2.16898    -4.15863     0.91958
H     -1.18631    -4.02842     1.00440
H     -4.40232    -3.16029    -1.21992
H     -4.44067    -4.60054    -0.14488
H     -4.56544    -2.97052     0.53256
C     -4.37710    -0.00034     0.89679
C     -5.80849     0.04825     0.45965
O     -3.84894    -0.95808     1.41403
O     -3.71900     1.13641     0.63524
H     -2.80855     1.04748     0.95894
H     -6.37446    -0.69923     1.00528
H     -6.22059     1.04183     0.61527
H     -5.84559    -0.18382    -0.60344
C      1.13239    -3.12763     0.29371
C      2.56978    -2.81174     0.54423
O      0.41754    -3.68287     1.11196
O      0.70823    -2.75161    -0.89614
H     -0.27053    -2.84748    -0.94838
H      2.91323    -3.33591     1.42565
H      3.16958    -3.08233    -0.31785
H      2.67224    -1.74262     0.69947
C     -0.26473    -0.01391     1.99438
C     -1.03645    -0.86040     2.95006
O      0.86085    -0.23354     1.62753
O     -0.96472     1.05340     1.54159
H     -0.39965     1.56457     0.93097
H     -0.41061    -1.67364     3.29890
H     -1.38322    -0.25704     3.78836
H     -1.91575    -1.25426     2.44331
C     -0.74450     5.53048    -1.01287
C     -1.25019     6.92922    -0.82249
O     -0.64434     5.02015    -2.11911
O     -0.42607     4.91010     0.10378
H     -0.12415     3.99102    -0.08915
H     -1.18783     7.21486     0.22111
H     -0.66817     7.60582    -1.44258
H     -2.28061     6.97957    -1.16642
C      3.82005     0.96224     1.57344
C      2.97842     2.10588     2.04413
O      4.29508     0.13821     2.33740
O      3.99751     0.92691     0.26912
H      4.59204     0.16836     0.02180
H      3.56937     2.72275     2.71891
H      2.63348     2.68733     1.19731
H      2.14019     1.69784     2.59791
