 40
-1146.272371647151
C      4.70322    -4.80829    -0.65365
C      4.89029    -6.29227    -0.79310
O      5.49865    -3.98502    -1.03544
O      3.54169    -4.50075    -0.05962
H      3.45469    -3.53440    -0.00828
H      4.76487    -6.56196    -1.84031
H      5.90670    -6.55017    -0.50796
H      4.16923    -6.83077    -0.18795
C      3.53968    -0.77776    -0.11506
C      4.93293    -0.93728    -0.61439
O      2.83706    -1.71222     0.25303
O      3.11947     0.47016    -0.10546
H      2.18874     0.52856     0.20288
H      5.41564     0.02992    -0.69765
H      5.47786    -1.60120     0.04850
H      4.90450    -1.43225    -1.58217
C     -2.02069     3.27034    -0.22528
C     -2.62697     4.46535    -0.87859
O     -2.63955     2.43950     0.41261
O     -0.70431     3.18714    -0.40563
H     -0.38484     2.37443     0.02092
H     -3.30602     4.94834    -0.18204
H     -1.85178     5.14562    -1.21287
H     -3.23711     4.13825    -1.71694
C     -6.12023     2.64519    -0.48504
C     -7.55588     2.21617    -0.62763
O     -5.69012     3.69495    -0.89506
O     -5.37898     1.72278     0.14561
H     -4.45795     2.03871     0.20784
H     -7.78376     2.10601    -1.68613
H     -7.73408     1.28185    -0.10704
H     -8.19782     3.00241    -0.23728
C     -0.08402    -0.14769     1.41635
C     -1.39966     0.04919     2.09172
O      0.47164     0.72092     0.75416
O      0.42886    -1.34725     1.59246
H      1.27897    -1.44988     1.10825
H     -1.59161    -0.76844     2.77717
H     -1.39578     1.00462     2.60686
H     -2.18096     0.10656     1.33889
