 48
-1375.5450710201808
C     -0.44375    -2.98714     1.97960
C     -0.99983    -3.43694     3.29164
O     -1.01150    -3.11493     0.90948
O      0.73978    -2.40368     2.08963
H      1.04894    -2.12082     1.21098
H     -1.67454    -4.27358     3.14254
H     -0.19307    -3.69833     3.96834
H     -1.56092    -2.60769     3.71963
C      1.59140    -1.24621    -1.44844
C      0.26375    -1.65920    -1.97811
O      1.93621    -1.43924    -0.28271
O      2.37115    -0.66446    -2.31914
H      3.24324    -0.41040    -1.91084
H      0.36544    -2.07217    -2.97860
H     -0.18401    -2.37637    -1.30144
H     -0.37044    -0.77590    -2.02951
C     -0.45980     1.71651     0.67893
C      0.31941     1.18464     1.83296
O     -0.50250     1.14437    -0.40395
O     -1.11360     2.82553     0.92323
H     -1.60165     3.13667     0.11535
H      1.24047     0.74786     1.46239
H      0.51800     1.96385     2.56271
H     -0.27659     0.39602     2.28920
C     -2.59138     2.89113    -2.25926
C     -3.43387     3.36120    -3.40963
O     -2.49179     3.53598    -1.22543
O     -1.99177     1.73746    -2.45800
H     -1.42142     1.50619    -1.67596
H     -3.34358     2.68668    -4.25322
H     -4.46971     3.41931    -3.08343
H     -3.12339     4.36540    -3.68674
C      4.90880     0.08488    -0.01441
C      6.15418     0.69846     0.55340
O      4.68310     0.05966    -1.21366
O      4.09229    -0.41505     0.89383
H      3.29967    -0.81502     0.46344
H      7.01952     0.19545     0.12963
H      6.20268     1.74124     0.25003
H      6.15712     0.61608     1.63392
C     -3.04240    -0.51410     1.04538
C     -4.07940     0.52654     0.73484
O     -2.40401    -0.52908     2.07392
O     -2.88498    -1.38857     0.05489
H     -2.20184    -2.04049     0.31544
H     -4.83418     0.13791     0.05819
H     -4.53364     0.87227     1.65857
H     -3.59625     1.37911     0.26051
