 80
-2292.584886134912
C     -0.36935     2.14733    -1.77361
C     -1.71921     2.51642    -2.30147
O      0.50615     2.96300    -1.55348
O     -0.22021     0.84817    -1.56903
H      0.70327     0.64940    -1.29105
H     -1.70554     2.44460    -3.38859
H     -2.45875     1.82107    -1.92238
H     -1.95154     3.53472    -2.01277
C     -5.36752     1.70608    -0.55340
C     -6.15649     2.96390    -0.38076
O     -4.92853     1.06893     0.40139
O     -5.18350     1.34073    -1.79660
H     -4.61710     0.52060    -1.86175
H     -5.62128     3.62625     0.29434
H     -6.32525     3.43682    -1.34197
H     -7.10937     2.71255     0.08208
C      1.42848    -5.43901    -1.73210
C      0.75381    -6.06846    -2.91413
O      2.40426    -5.92504    -1.18297
O      0.87462    -4.30629    -1.35229
H      1.33285    -3.95368    -0.55274
H     -0.28230    -6.28666    -2.66431
H      0.74929    -5.36387    -3.74316
H      1.27122    -6.97821    -3.19259
C      0.82324    -0.27466     2.05524
C     -0.17374     0.83615     2.13190
O      1.95174    -0.21661     2.48708
O      0.35468    -1.35763     1.42331
H      1.05624    -2.02565     1.33547
H     -1.17505     0.44554     2.26776
H      0.08418     1.51874     2.93364
H     -0.14113     1.41039     1.21019
C      3.15418    -3.87250     1.32397
C      3.89639    -3.16591     2.40203
O      2.07985    -3.48611     0.87094
O      3.75045    -4.94774     0.87728
H      3.22896    -5.35258     0.13804
H      3.28743    -2.35623     2.78519
H      4.16309    -3.86989     3.18827
H      4.81409    -2.76774     1.97387
C     -3.50033     3.23255     2.89294
C     -2.89254     3.72014     4.16849
O     -3.77637     3.94289     1.94265
O     -3.71285     1.92436     2.88235
H     -4.12254     1.67570     2.03812
H     -1.84982     3.96370     3.97563
H     -3.39848     4.62908     4.48403
H     -2.96035     2.95348     4.93201
C     -0.67242     4.71017     1.00860
C      0.50351     5.45342     0.45403
O     -0.60746     3.87423     1.87901
O     -1.81687     5.06836     0.41746
H     -2.56754     4.65503     0.89315
H      0.53170     6.45528     0.88189
H      1.41765     4.92551     0.70210
H      0.40128     5.53825    -0.62291
C     -2.83592    -1.14789    -1.07641
C     -1.77947    -2.17413    -1.31413
O     -3.54275    -0.69584    -1.96574
O     -2.94134    -0.76083     0.18183
H     -3.68867    -0.12978     0.29435
H     -2.25435    -3.11871    -1.57567
H     -1.16123    -1.86611    -2.15200
H     -1.17784    -2.29556    -0.42353
C      3.04705     1.22119    -0.17264
C      4.27730     0.88981     0.60132
O      2.40996     0.41357    -0.84334
O      2.67253     2.47777    -0.05699
H      1.89077     2.67538    -0.62499
H      3.95750     0.63107     1.61100
H      4.77510     0.03534     0.15727
H      4.92779     1.75926     0.64658
C      4.40237    -2.50824    -1.69172
C      4.89695    -3.67135    -2.49729
O      4.89880    -2.15462    -0.64907
O      3.33552    -1.91817    -2.23880
H      3.07869    -1.15520    -1.69502
H      4.62381    -4.58583    -1.97498
H      4.46133    -3.66941    -3.49060
H      5.98176    -3.62925    -2.55516
