 32
-917.0167658802724
C      0.40920    -1.95758    -2.95797
C      1.41959    -3.00164    -3.34721
O      0.32222    -0.86594    -3.46436
O     -0.39111    -2.39050    -1.97172
H     -1.02096    -1.68817    -1.74062
H      2.06188    -2.61081    -4.12824
H      2.01437    -3.28180    -2.47963
H      0.90841    -3.89596    -3.69983
C     -1.84150     0.82263    -1.96744
C     -2.21112     1.17349    -3.36586
O     -2.18482    -0.22277    -1.41984
O     -1.10242     1.72120    -1.36503
H     -0.86697     1.43609    -0.45102
H     -1.45840     0.73615    -4.01927
H     -3.17774     0.74344    -3.60772
H     -2.21070     2.25053    -3.49227
C      2.71002     0.82329     3.03630
C      4.14438     1.13740     3.34938
O      2.06466    -0.03312     3.59167
O      2.21707     1.61226     2.07277
H      1.29401     1.36140     1.90210
H      4.70424     0.20772     3.40341
H      4.56650     1.80224     2.60404
H      4.19082     1.60420     4.33147
C     -1.19499     0.21637     1.83452
C     -1.13486     0.09709     3.31892
O     -0.47689     0.98376     1.19766
O     -2.08353    -0.56270     1.26135
H     -2.08746    -0.44993     0.27897
H     -1.21581     1.09204     3.74830
H     -1.92635    -0.55078     3.67768
H     -0.15639    -0.29055     3.59796
