 40
-1146.28133222897
C      0.64167    -1.69334    -1.50438
C     -0.31310    -2.50145    -2.32249
O      1.46953    -2.19414    -0.75840
O      0.48388    -0.39109    -1.63558
H      1.16031     0.09134    -1.10271
H      0.06782    -3.50929    -2.44603
H     -1.26182    -2.53859    -1.78797
H     -0.47856    -2.02294    -3.28316
C      3.02205     0.34638     0.72270
C      3.89854     1.15223     1.61680
O      2.28361     0.85848    -0.11851
O      3.07564    -0.94691     0.90991
H      2.49399    -1.42970     0.25703
H      3.30557     1.94374     2.06727
H      4.34732     0.51833     2.37269
H      4.65861     1.64215     1.01163
C      4.07335     3.57166    -1.63364
C      4.42390     4.70224    -2.56217
O      4.74709     3.20970    -0.70067
O      2.90474     3.00561    -1.97238
H      2.71505     2.28388    -1.35228
H      3.62557     5.44143    -2.55835
H      5.35621     5.15421    -2.24507
H      4.51832     4.32474    -3.57846
C     -5.65593    -1.42474     0.80904
C     -7.10296    -1.64726     0.47738
O     -5.30060    -0.56838     1.60454
O     -4.82916    -2.22382     0.17094
H     -3.88480    -2.03009     0.41386
H     -7.64829    -1.84510     1.39668
H     -7.50850    -0.73342     0.04955
H     -7.21200    -2.47184    -0.21745
C     -1.93861    -0.84350     1.58550
C     -0.49139    -0.59530     1.87851
O     -2.30364    -1.69513     0.78564
O     -2.75890    -0.06820     2.25080
H     -3.70474    -0.25632     2.01099
H     -0.35051    -0.24850     2.89641
H      0.06655    -1.50431     1.69018
H     -0.12446     0.16898     1.19774
