 80
-2292.581738998358
C      2.09900     1.86393    -0.40398
C      0.73436     2.25762    -0.84832
O      2.94475     1.39141    -1.14638
O      2.32045     2.06245     0.88641
H      3.20085     1.69115     1.12992
H      0.49218     3.25016    -0.48637
H      0.66407     2.20597    -1.92561
H      0.02234     1.55665    -0.42261
C     -2.10588     3.19569     1.68894
C     -1.06254     2.48973     2.48841
O     -3.28163     2.83365     1.67807
O     -1.67573     4.22545     1.01306
H     -2.41321     4.64527     0.48458
H     -0.08707     2.60489     2.02864
H     -1.03704     2.93641     3.48295
H     -1.32814     1.44215     2.57327
C     -1.09759    -4.84616    -0.95428
C     -1.55249    -5.83193     0.07380
O     -0.01961    -4.92621    -1.51961
O     -1.96403    -3.87813    -1.19045
H     -1.59728    -3.24450    -1.84837
H     -0.87704    -6.67928     0.08619
H     -1.54893    -5.34500     1.04615
H     -2.56848    -6.15093    -0.14388
C     -2.59146     0.89729    -2.33712
C     -3.67157     1.87347    -1.96676
O     -1.48890     1.21642    -2.70792
O     -2.98102    -0.37401    -2.20228
H     -2.25454    -0.95379    -2.49011
H     -4.60145     1.62945    -2.47451
H     -3.85087     1.83235    -0.89596
H     -3.35782     2.87766    -2.22852
C      0.34772    -1.98719    -3.03913
C      0.97225    -0.74513    -3.57739
O     -0.86437    -2.13478    -2.90111
O      1.21109    -2.92545    -2.74082
H      0.75981    -3.71042    -2.33679
H      1.45760    -0.98341    -4.52400
H      0.21368     0.01071    -3.72051
H      1.73601    -0.39192    -2.89080
C     -3.20965    -0.65631     1.02478
C     -3.60056    -2.08943     0.90658
O     -2.08662    -0.21905     0.85107
O     -4.23018     0.13702     1.34108
H     -3.91033     1.04558     1.47534
H     -4.01453    -2.26051    -0.08683
H     -2.72005    -2.70972     1.01976
H     -4.36016    -2.33138     1.64681
C      0.53609    -2.30056     0.76112
C      1.98431    -2.67283     0.73200
O     -0.29867    -2.89642     1.39870
O      0.24501    -1.25122    -0.01792
H     -0.65344    -0.92734     0.19988
H      2.31048    -2.94889     1.72802
H      2.10550    -3.52526     0.06671
H      2.58716    -1.85191     0.36454
C     -4.80919     5.06368    -0.26255
C     -5.87352     5.89713    -0.91237
O     -3.61512     5.28568    -0.39660
O     -5.28193     4.06396     0.45417
H     -4.55024     3.59004     0.91835
H     -5.42116     6.64477    -1.55312
H     -6.53689     5.25471    -1.48667
H     -6.47146     6.38054    -0.14251
C      5.67610     1.05725     0.64809
C      7.09092     0.88912     1.08543
O      4.72146     0.88679     1.40576
O      5.52804     1.40351    -0.60665
H      4.56279     1.43776    -0.84870
H      7.76522     1.29859     0.34257
H      7.21887     1.36879     2.05131
H      7.28123    -0.17217     1.23687
C      5.54434    -2.35917     2.86302
C      5.30807    -3.73016     3.42928
O      6.62951    -1.92171     2.57091
O      4.40346    -1.67193     2.70637
H      4.62662    -0.79758     2.34965
H      5.62647    -4.46651     2.69460
H      5.92997    -3.85555     4.31173
H      4.26234    -3.87484     3.67421
