 72
-2063.324800003625
C      2.09187     0.59521    -1.93695
C      2.42547     1.99313    -2.38128
O      2.87096    -0.14875    -1.38513
O      0.82965     0.26223    -2.21522
H      0.67543    -0.64571    -1.88165
H      1.63897     2.67972    -2.08296
H      3.36929     2.28603    -1.93491
H      2.50386     2.01966    -3.46840
C      2.75026     5.44657     0.13500
C      4.19058     5.65605    -0.19193
O      2.32858     5.42594     1.29092
O      1.96519     5.25750    -0.89523
H      1.00138     5.25066    -0.63426
H      4.59926     6.42074     0.46207
H      4.70883     4.71885     0.01328
H      4.30906     5.92102    -1.23654
C     -0.99036     5.71002     0.86554
C     -2.39396     6.18271     1.09791
O     -0.57433     5.37017    -0.23165
O     -0.25323     5.68337     1.95580
H      0.69883     5.52606     1.73297
H     -2.85844     5.56739     1.86384
H     -2.37791     7.20497     1.46956
H     -2.96385     6.12920     0.17784
C     -3.18803    -6.31850    -2.18368
C     -3.31784    -7.79411    -2.42774
O     -3.23104    -5.50209    -3.08887
O     -3.03623    -6.00092    -0.91297
H     -2.96461    -5.01627    -0.80696
H     -2.71162    -8.07048    -3.28536
H     -3.02242    -8.35235    -1.54658
H     -4.35506    -8.01407    -2.67093
C     -1.50267    -2.88063     2.24684
C     -1.61290    -4.36384     2.35705
O     -0.53026    -2.33033     1.73672
O     -2.51989    -2.20978     2.71052
H     -2.37416    -1.23109     2.58243
H     -2.04495    -4.64486     3.31383
H     -2.27252    -4.71191     1.56376
H     -0.63536    -4.81490     2.22853
C     -2.80673    -2.55821    -1.50951
C     -2.64494    -1.10516    -1.21446
O     -2.83126    -3.40039    -0.62282
O     -2.93111    -2.84404    -2.78035
H     -3.04992    -3.81969    -2.91237
H     -1.67719    -0.76747    -1.57265
H     -3.41990    -0.52869    -1.71160
H     -2.70375    -0.96977    -0.14411
C     -1.11734     0.89062     1.74223
C     -1.01165     2.37351     1.58419
O     -2.07839     0.34072     2.25603
O     -0.08072     0.23148     1.26917
H     -0.20908    -0.73975     1.38527
H     -1.99637     2.81608     1.68131
H     -0.36359     2.76414     2.36269
H     -0.58171     2.61200     0.61855
C      1.38086    -2.99646    -0.89662
C      2.61054    -3.27287    -1.70004
O      0.49378    -2.23021    -1.22710
O      1.33128    -3.68353     0.23791
H      0.56955    -3.35863     0.75173
H      3.11399    -4.15866    -1.32727
H      2.33710    -3.38798    -2.74566
H      3.26195    -2.40256    -1.62262
C      3.47986     2.06421     1.51238
C      3.45720     0.58318     1.73210
O      4.23194     2.64931     0.76979
O      2.54031     2.70079     2.23790
H      2.58271     3.64848     2.03558
H      3.86293     0.08360     0.85963
H      4.06506     0.35068     2.60808
H      2.43884     0.25798     1.91705
