 72
-2063.326798945049
C      2.92961    -4.06762     2.25915
C      4.34729    -4.00739     1.79998
O      1.98143    -4.10199     1.47472
O      2.77378    -4.06647     3.55811
H      1.80941    -4.08157     3.80852
H      4.55947    -2.96637     1.55236
H      5.01467    -4.34277     2.58637
H      4.46228    -4.59742     0.89609
C     -0.51527     1.81498    -3.81304
C     -1.93743     1.94970    -3.37551
O      0.43717     2.28395    -3.19543
O     -0.37483     1.14001    -4.92874
H      0.57688     1.06964    -5.20449
H     -2.55103     2.24369    -4.22360
H     -2.29456     0.98559    -3.02272
H     -2.01464     2.67442    -2.57767
C     -2.59382    -0.39588     0.17743
C     -1.53313    -1.44388     0.14002
O     -3.44126    -0.26565    -0.68417
O     -2.53890     0.37681     1.25668
H     -3.22440     1.10459     1.19937
H     -0.59823    -1.03131     0.50152
H     -1.82373    -2.25253     0.80607
H     -1.40573    -1.81981    -0.87016
C     -0.71502    -3.96645     3.40651
C     -2.13184    -3.84528     3.87079
O      0.22574    -4.01998     4.18363
O     -0.57272    -3.99711     2.09838
H      0.38660    -4.05122     1.85698
H     -2.25036    -2.88275     4.36409
H     -2.81337    -3.91385     3.03024
H     -2.34109    -4.62110     4.60334
C     -4.60089     2.75869    -0.09010
C     -4.97320     4.19046    -0.29067
O     -4.25751     2.30306     0.99391
O     -4.65359     2.03591    -1.18750
H     -4.29875     1.13331    -1.00723
H     -4.09460     4.69671    -0.68787
H     -5.77813     4.27132    -1.01484
H     -5.24738     4.63977     0.65773
C      2.54111    -0.95121    -0.00762
C      2.29267     0.38101    -0.62694
O      3.37431    -1.17064     0.84073
O      1.72841    -1.91191    -0.47955
H      1.94260    -2.73160    -0.00858
H      3.20321     0.72155    -1.11379
H      1.48740     0.32080    -1.35103
H      2.03540     1.08891     0.15500
C      3.15469     1.26454    -5.06935
C      4.56160     1.00612    -5.51442
O      2.17926     0.90310    -5.70481
O      3.07496     1.92645    -3.92756
H      2.13561     2.09507    -3.69813
H      5.25000     1.12510    -4.68554
H      4.62633     0.00912    -5.93814
H      4.81076     1.71920    -6.29715
C     -0.83735     3.68323    -0.02315
C     -0.87218     3.79160     1.46943
O     -1.78535     3.86276    -0.75404
O      0.37436     3.35548    -0.47246
H      0.32298     3.19287    -1.42672
H     -0.52820     4.78478     1.76086
H     -1.89317     3.64968     1.80576
H     -0.20882     3.05151     1.90519
C      0.54514    -0.13178     3.05159
C      1.50421    -0.61066     4.10003
O      0.82366     0.64377     2.17191
O     -0.68081    -0.67488     3.17306
H     -1.26371    -0.25784     2.51081
H      2.41871    -0.93482     3.61023
H      1.74912     0.21782     4.76390
H      1.06552    -1.42086     4.67147
