 72
-2063.3310817452207
C      5.81435    -0.85111     1.76368
C      7.29742    -1.07875     1.74832
O      5.02016    -1.75906     1.55720
O      5.45444     0.39011     1.99596
H      4.46325     0.48048     1.99169
H      7.58823    -1.40650     0.75269
H      7.82479    -0.16971     2.01351
H      7.54277    -1.88067     2.43974
C     -2.92716     4.12874    -0.13175
C     -4.28670     4.14830    -0.74973
O     -2.23886     3.11643    -0.09669
O     -2.53023     5.27942     0.34385
H     -1.58932     5.22007     0.67047
H     -4.77685     3.19752    -0.57055
H     -4.86588     4.98176    -0.36702
H     -4.16201     4.26756    -1.82470
C      0.77999     4.18167     0.98798
C      2.23204     4.29166     1.32689
O     -0.00726     5.10453     1.11047
O      0.43814     2.98865     0.53570
H     -0.46561     3.00299     0.15716
H      2.72935     4.81016     0.50880
H      2.34538     4.88961     2.22616
H      2.66146     3.30461     1.44937
C     -3.74923    -4.93443     1.34418
C     -5.11094    -5.21436     1.90951
O     -2.89377    -4.33531     1.98078
O     -3.56770    -5.36591     0.11648
H     -2.63246    -5.19904    -0.17987
H     -5.71086    -5.76487     1.19429
H     -5.00173    -5.77572     2.83404
H     -5.58731    -4.26857     2.15729
C     -3.24046    -0.23669    -0.56386
C     -3.10843    -1.71825    -0.74869
O     -4.17566     0.42213    -0.94501
O     -2.18308     0.29285     0.07285
H     -2.29017     1.25706     0.07455
H     -2.87597    -2.19475     0.19974
H     -4.02774    -2.12821    -1.15248
H     -2.28724    -1.92002    -1.43466
C     -0.26449    -4.20618    -0.04878
C      1.10231    -3.94576    -0.59685
O     -1.10045    -4.86804    -0.64409
O     -0.48765    -3.63843     1.12063
H     -1.37643    -3.90468     1.47872
H      1.73393    -3.52156     0.17339
H      1.51394    -4.87622    -0.98015
H      1.01555    -3.24477    -1.42484
C      2.31045     0.33071    -1.73366
C      3.70438    -0.21366    -1.64725
O      1.33358    -0.38148    -1.90240
O      2.24730     1.63332    -1.57405
H      1.31613     1.95777    -1.66050
H      4.03832    -0.14174    -0.61635
H      3.71799    -1.25438    -1.94796
H      4.37984     0.37708    -2.25791
C     -1.06960     1.70520    -2.78574
C     -2.29328     2.28850    -3.41589
O     -0.23774     2.37638    -2.20080
O     -0.99326     0.39915    -2.90936
H     -0.15345     0.06221    -2.51223
H     -2.10322     3.32088    -3.68810
H     -2.60061     1.70713    -4.27926
H     -3.08973     2.25824    -2.67254
C      2.03913    -0.31783     1.79173
C      0.56629    -0.08818     1.76553
O      2.85090     0.59103     1.90318
O      2.39942    -1.57509     1.65668
H      3.38933    -1.66993     1.66105
H      0.33247     0.81362     2.31897
H      0.25633     0.05122     0.73276
H      0.04883    -0.94916     2.17266
