 80
-2292.5879323578874
C     -0.51861    -2.40848    -1.44634
C     -1.97354    -2.31578    -1.78228
O     -0.09145    -3.01521    -0.47548
O      0.25910    -1.76294    -2.29248
H      1.20416    -1.87169    -2.03056
H     -2.16682    -2.83485    -2.71971
H     -2.55677    -2.75228    -0.98349
H     -2.23799    -1.27198    -1.91562
C     -3.77452     0.03214     2.55989
C     -4.38444     1.38682     2.58186
O     -3.93903    -0.76219     1.63181
O     -3.05070    -0.25726     3.60964
H     -2.53362    -1.09289     3.46106
H     -4.62791     1.66316     3.60294
H     -3.65431     2.09456     2.18306
H     -5.25060     1.40658     1.93233
C      4.83159     0.77893     0.91524
C      6.30564     0.99617     0.96659
O      4.29632    -0.28988     1.16125
O      4.14992     1.85192     0.55740
H      3.18585     1.68948     0.62496
H      6.52936     1.98142     1.36531
H      6.76520     0.21706     1.56508
H      6.68338     0.93654    -0.05319
C     -1.31228     3.86416     0.79085
C     -1.96794     5.16672     0.44895
O     -1.86677     2.93135     1.32979
O     -0.03622     3.83690     0.40425
H      0.35491     2.97783     0.62887
H     -2.07504     5.22714    -0.63233
H     -2.94618     5.20790     0.91443
H     -1.34905     5.99753     0.77890
C      0.99168     0.34375     1.40377
C     -0.44780     0.14041     1.76173
O      1.43888     1.36381     0.88551
O      1.74851    -0.68693     1.69547
H      2.70091    -0.49956     1.50555
H     -1.05224     0.95028     1.37432
H     -0.78354    -0.81209     1.36174
H     -0.54372     0.08944     2.84487
C     -4.71470     0.85378    -1.30499
C     -5.11153     1.18154    -2.70981
O     -4.22135     1.65173    -0.53712
O     -4.95251    -0.41479    -0.97986
H     -4.64921    -0.55711    -0.06731
H     -5.84908     1.98078    -2.68891
H     -4.23957     1.56263    -3.23667
H     -5.51522     0.30840    -3.21013
C     -1.17879     2.22083    -2.28482
C      0.19238     1.91922    -2.81010
O     -1.88519     3.12373    -2.65001
O     -1.54123     1.33330    -1.32906
H     -2.33734     1.65455    -0.86424
H      0.89633     1.84388    -1.98436
H      0.18461     0.95919    -3.32117
H      0.50363     2.70097    -3.49769
C     -2.14796    -3.39822     2.33440
C     -1.57600    -4.77968     2.35356
O     -1.75956    -2.50487     3.07071
O     -3.09489    -3.22923     1.43268
H     -3.44905    -2.30810     1.48172
H     -2.37791    -5.51114     2.41679
H     -1.04318    -4.94249     1.41939
H     -0.89281    -4.88518     3.18852
C      3.18391    -2.87545    -0.58975
C      4.63914    -3.11851    -0.38893
O      2.74175    -2.07074    -1.40419
O      2.40935    -3.59532     0.17853
H      1.45877    -3.40415    -0.01171
H      5.19698    -2.70215    -1.21912
H      4.93933    -2.62240     0.53173
H      4.82505    -4.18413    -0.28469
C      4.70525     0.82739    -2.45898
C      4.95059     2.19819    -3.01957
O      5.56654     0.09059    -2.04299
O      3.40438     0.51513    -2.43016
H      3.30113    -0.34945    -1.99936
H      4.56644     2.93894    -2.31825
H      6.01512     2.35258    -3.16006
H      4.42410     2.32949    -3.96313
