 32
-917.0184147111155
C      1.63812    -2.23971     1.74410
C      2.76788    -3.21337     1.94172
O      1.73353    -1.04205     1.86025
O      0.49550    -2.86327     1.42715
H     -0.20183    -2.19195     1.29660
H      2.93570    -3.77614     1.02500
H      3.66937    -2.67738     2.21659
H      2.50770    -3.92869     2.72020
C     -1.47222    -0.06762     1.88415
C     -1.21829    -0.52974     3.28502
O     -1.40166    -0.82868     0.92110
O     -1.75781     1.19988     1.77934
H     -1.87054     1.48635     0.82517
H     -1.83960     0.01927     3.98655
H     -1.40157    -1.59636     3.34563
H     -0.16964    -0.34082     3.50825
C      1.73327     1.21256    -2.05812
C      1.49104     0.88446    -0.61983
O      0.94135     1.73010    -2.80733
O      2.96578     0.85469    -2.47492
H      3.01833     1.09945    -3.40673
H      0.65512     1.47430    -0.26720
H      1.24436    -0.16933    -0.51960
H      2.36691     1.05721    -0.00595
C     -2.04855     1.28243    -1.70492
C     -2.28310     1.81154    -3.07653
O     -1.98627     1.98341    -0.70654
O     -1.90158    -0.02961    -1.66225
H     -1.75988    -0.32125    -0.73653
H     -2.75944     2.78426    -3.01955
H     -1.31394     1.91499    -3.56159
H     -2.88405     1.10787    -3.64403
