 48
-1375.549509637384
C     -1.72241     1.91410    -3.89306
C     -1.21744     2.36071    -5.23358
O     -2.41859     0.92205    -3.74260
O     -1.33520     2.69199    -2.90070
H     -1.67539     2.35560    -2.03726
H     -0.13820     2.48440    -5.19140
H     -1.48860     1.63196    -5.98764
H     -1.65081     3.32850    -5.47621
C      1.15571    -1.27303    -0.97235
C     -0.03821    -1.06948    -1.84569
O      1.59022    -2.37882    -0.69080
O      1.69747    -0.15212    -0.54207
H      2.44597    -0.35396     0.07273
H      0.14947    -1.48656    -2.83056
H     -0.87955    -1.59273    -1.40477
H     -0.25812    -0.01248    -1.92822
C     -2.98212     0.75357    -0.45720
C     -3.52291     0.38288     0.88037
O     -2.16918     1.66199    -0.62222
O     -3.44983     0.04361    -1.44769
H     -3.10128     0.37681    -2.31661
H     -4.51264     0.82644     0.98349
H     -3.60435    -0.69490     0.94416
H     -2.86164     0.75953     1.65034
C      0.62711     2.09482     1.49898
C      1.97916     2.50778     1.98626
O     -0.07156     1.27496     2.06595
O      0.24648     2.71163     0.39223
H     -0.61109     2.35191     0.11320
H      2.42340     3.22943     1.31065
H      1.87986     2.93843     2.98157
H      2.61127     1.62674     2.07000
C      3.69331    -1.76746     1.80824
C      4.43025    -1.90453     3.10918
O      3.61413    -0.70627     1.21033
O      3.16654    -2.89464     1.38000
H      2.62460    -2.73507     0.56694
H      4.12152    -2.80284     3.63220
H      5.49691    -1.95880     2.89870
H      4.24747    -1.02134     3.71413
C     -0.45564    -2.01396     1.79699
C     -0.37798    -3.47505     2.12472
O     -1.25913    -1.53811     1.02489
O      0.46635    -1.28778     2.42429
H      0.27335    -0.33682     2.26062
H     -0.32114    -3.62703     3.20071
H     -1.24237    -3.98837     1.71702
H      0.52519    -3.88802     1.67735
