 64
-1834.0657267932943
C     -2.85862     0.55155    -1.39394
C     -2.36739     1.63807    -2.29510
O     -3.62522     0.75169    -0.46744
O     -2.40571    -0.65265    -1.70878
H     -2.68294    -1.30869    -1.02504
H     -3.12221     1.80763    -3.06300
H     -2.23727     2.54631    -1.71909
H     -1.43771     1.33851    -2.75912
C      2.55604     3.96223     0.84580
C      2.15735     5.29352     1.38887
O      1.93858     3.40437    -0.06114
O      3.60208     3.43219     1.42023
H      3.81627     2.53987     1.04272
H      1.26974     5.13924     1.99981
H      2.95751     5.70616     1.99262
H      1.89495     5.95896     0.57136
C      0.61003    -1.39661    -3.19533
C     -0.52202    -1.82488    -4.07214
O      1.33421    -2.14041    -2.57783
O      0.74790    -0.06350    -3.15996
H      1.43127     0.16538    -2.50774
H     -1.37604    -1.18050    -3.90317
H     -0.22437    -1.74449    -5.11768
H     -0.77286    -2.85243    -3.83827
C      3.44877     0.42376    -0.44198
C      3.76302    -0.95878    -0.89285
O      4.04925     0.99840     0.44373
O      2.44329     1.00075    -1.10003
H      2.26755     1.90555    -0.74659
H      3.02897    -1.64032    -0.46979
H      3.67993    -1.02820    -1.97266
H      4.75788    -1.23675    -0.55814
C     -3.23317    -1.96109     1.40279
C     -2.86735    -2.73452     2.62323
O     -2.98905    -2.35059     0.26278
O     -3.84454    -0.82832     1.64374
H     -3.86855    -0.26332     0.83223
H     -2.66956    -3.76769     2.36452
H     -1.96421    -2.28479     3.03147
H     -3.65926    -2.65750     3.36358
C      0.69918    -0.57891     2.00862
C      1.46887     0.51456     2.68647
O     -0.50557    -0.66092     2.02125
O      1.48892    -1.44296     1.36317
H      0.96620    -2.22331     1.06355
H      0.91397     0.87495     3.54416
H      2.45706     0.17519     2.97730
H      1.57596     1.35330     2.00959
C     -1.02089     2.95393     1.59253
C     -2.43661     2.67905     1.98981
O     -0.13038     3.20826     2.36730
O     -0.83593     2.88383     0.26535
H      0.10487     3.03454     0.07608
H     -3.11388     2.95018     1.18696
H     -2.55087     1.61210     2.17662
H     -2.66986     3.21892     2.90372
C      0.03728    -4.20747    -0.53402
C      0.96133    -5.06547    -1.33339
O      0.30449    -3.72366     0.54945
O     -1.13292    -4.00618    -1.12959
H     -1.69046    -3.45122    -0.55742
H      1.67489    -5.54895    -0.67359
H      0.39555    -5.79531    -1.90402
H      1.50154    -4.42334    -2.02665
