 72
-2063.3238776329445
C      5.51519    -0.83866     0.75664
C      6.62504    -1.48319     1.51428
O      4.96017     0.19320     1.13441
O      5.15825    -1.46596    -0.33289
H      4.44022    -0.97310    -0.81641
H      6.17389    -2.01833     2.34961
H      7.15936    -2.17890     0.87750
H      7.28505    -0.71963     1.91503
C     -0.76156     1.73287     1.50838
C      0.41846     1.73767     2.41946
O     -1.78857     2.35306     1.70079
O     -0.59169     0.97256     0.43455
H     -1.36356     1.05908    -0.15187
H      1.26082     2.20163     1.91364
H      0.18710     2.27847     3.33304
H      0.69680     0.71307     2.65061
C     -3.56191    -1.52896    -1.93382
C     -3.52532    -3.01783    -2.07153
O     -4.49055    -0.88935    -1.49936
O     -2.42135    -0.95480    -2.33736
H     -2.51277    -0.00092    -2.20488
H     -4.53359    -3.41458    -2.01732
H     -3.04910    -3.29958    -3.00662
H     -2.93729    -3.42917    -1.25179
C     -2.78760    -1.23499     1.99656
C     -4.08606    -0.52611     2.21241
O     -2.60400    -2.02084     1.08435
O     -1.85564    -0.92376     2.87536
H     -1.01976    -1.40132     2.65675
H     -3.92365     0.54010     2.08346
H     -4.81434    -0.88323     1.49324
H     -4.43913    -0.70112     3.22689
C     -1.98761     2.66417    -4.90524
C     -1.13516     2.76581    -6.13872
O     -3.18242     2.80590    -4.86384
O     -1.24798     2.38968    -3.81561
H     -1.85063     2.30109    -3.06182
H     -0.48416     3.63622    -6.06341
H     -0.50123     1.88503    -6.22468
H     -1.77150     2.85990    -7.01133
C      0.64322    -2.56367     0.97906
C      2.00300    -3.03263     0.55881
O      0.38175    -2.18061     2.10965
O     -0.24805    -2.60202     0.00740
H     -1.13079    -2.34736     0.36272
H      2.25317    -2.60386    -0.40727
H      2.73025    -2.74606     1.30837
H      1.98929    -4.11736     0.46189
C      2.79057     0.93173    -1.32972
C      1.85567     1.66818    -2.23552
O      3.23884    -0.17560    -1.58253
O      3.08179     1.58983    -0.21958
H      3.77420     1.10967     0.29526
H      0.99239     1.99936    -1.66866
H      2.36015     2.54869    -2.63020
H      1.54121     1.02709    -3.04984
C     -3.81348     2.23195    -0.96371
C     -5.05305     2.24328    -1.78621
O     -2.72707     1.80520    -1.36496
O     -3.96565     2.70478     0.24988
H     -3.13177     2.62682     0.78088
H     -4.84893     2.70745    -2.74767
H     -5.33510     1.20630    -1.96005
H     -5.84215     2.76578    -1.25489
C      3.35990    -1.35650     3.85429
C      2.51772    -1.62208     5.06529
O      4.09500    -2.16594     3.34137
O      3.18927    -0.11821     3.37231
H      3.77647    -0.00552     2.60603
H      2.45984    -0.73558     5.69157
H      1.50958    -1.87798     4.73962
H      2.93053    -2.46023     5.61719
