 40
-1146.276770538361
C      1.18943    -2.62690    -1.81294
C     -0.13892    -3.19097    -2.20571
O      1.81687    -1.87027    -2.53983
O      1.60925    -2.99851    -0.62221
H      2.50506    -2.61893    -0.42987
H     -0.05231    -3.63016    -3.19619
H     -0.47159    -3.92681    -1.48248
H     -0.85886    -2.37762    -2.26562
C      4.52602    -1.04423    -0.76299
C      5.81030    -0.39160    -0.34611
O      3.96313    -1.89176    -0.08751
O      4.07537    -0.61394    -1.92018
H      3.24203    -1.09321    -2.17239
H      6.58851    -0.64127    -1.06410
H      5.69262     0.68925    -0.35489
H      6.09291    -0.73479     0.64140
C      0.57932     1.48433     0.74061
C      1.66986     0.70175     0.07477
O     -0.16303     0.97853     1.57153
O      0.49731     2.73330     0.35265
H     -0.25945     3.19226     0.80267
H      2.55201     1.31557    -0.06853
H      1.89662    -0.16377     0.68082
H      1.32410     0.36704    -0.89935
C     -3.74772    -0.91148    -0.71341
C     -3.30139    -0.92540     0.71817
O     -3.03474    -0.82624    -1.67944
O     -5.09235    -1.01854    -0.82124
H     -5.28850    -0.99301    -1.76588
H     -3.76257    -0.10140     1.25984
H     -3.61199    -1.85329     1.19754
H     -2.22267    -0.82482     0.76449
C     -2.35137     3.36726     2.32297
C     -3.53349     4.08647     2.90615
O     -1.55878     3.92309     1.57932
O     -2.26200     2.10319     2.68081
H     -1.44898     1.68653     2.28670
H     -4.10168     3.42424     3.54844
H     -3.17834     4.94909     3.46362
H     -4.15421     4.45561     2.09370
