 56
-1604.8046427715153
C     -3.37607     0.40693     1.34213
C     -4.09155    -0.43753     2.35232
O     -3.91329     1.15082     0.55975
O     -2.04808     0.21593     1.37389
H     -1.62242     0.84743     0.77533
H     -3.65643    -0.30175     3.33992
H     -5.14081    -0.16346     2.36545
H     -3.98867    -1.48359     2.07230
C      1.37496    -1.86070     1.75030
C      0.02018    -2.10423     2.34706
O      1.90969    -2.59616     0.95282
O      1.92872    -0.73027     2.19980
H      2.83193    -0.65178     1.83422
H     -0.44056    -1.16790     2.63626
H     -0.59840    -2.63085     1.62687
H      0.14204    -2.73214     3.23147
C     -0.31654     2.45287    -1.07998
C     -1.60431     2.89499    -1.68496
O     -0.21242     2.02504     0.06719
O      0.70963     2.55479    -1.89032
H      4.91768     3.44385     0.49959
H     -1.51284     3.91970    -2.04010
H     -1.81855     2.25915    -2.54111
H     -2.39686     2.80510    -0.95285
C     -0.84629    -1.20497    -1.49567
C      0.63473    -1.01361    -1.43853
O     -1.42279    -2.12689    -0.94203
O     -1.48424    -0.28254    -2.18876
H     -2.44798    -0.52313    -2.28504
H      1.12094    -1.97857    -1.36719
H      0.97774    -0.44992    -2.29640
H      0.88813    -0.45848    -0.53661
C     -4.58984    -1.41620    -1.37993
C     -6.06066    -1.23573    -1.17576
O     -3.99322    -0.95848    -2.34090
O     -3.99811    -2.09929    -0.41880
H     -3.02016    -2.15582    -0.58204
H     -6.52255    -0.91977    -2.10414
H     -6.51328    -2.15377    -0.81134
H     -6.19917    -0.45871    -0.42486
C      3.02282     2.49592     0.63758
C      4.30468     2.95570     1.25095
O      2.96084     2.02070    -0.49522
O      1.98244     2.60543     1.42169
H      1.16015     2.30804     0.95694
H      1.54858     2.32637    -1.42388
H      4.10852     3.61519     2.08797
H      4.83380     2.07187     1.60285
C      4.49545    -1.22546    -0.00792
C      4.95854    -2.63474    -0.15074
O      4.39061    -0.63096     1.05075
O      4.16204    -0.65808    -1.16174
H      3.84779     0.23744    -0.96387
H      5.33396    -2.80835    -1.15312
H      5.71361    -2.85063     0.59919
H      4.09979    -3.27997     0.03212
