 48
-1375.545095642212
C     -0.49562    -2.92072     2.03618
C     -1.08751    -3.34903     3.33724
O     -1.00766    -3.10466     0.94578
O      0.65510    -2.27929     2.17051
H      0.97433    -2.01687     1.29126
H     -1.77235    -2.56844     3.66498
H     -1.65044    -4.26775     3.20463
H     -0.30671    -3.47085     4.08011
C      1.65121    -1.03033    -1.30927
C      0.35167    -1.51545    -1.85303
O      2.02493    -1.24762    -0.15762
O      2.36995    -0.35408    -2.16840
H      3.23601    -0.06159    -1.77977
H     -0.06080    -2.26526    -1.18976
H     -0.33191    -0.67031    -1.90821
H      0.48803    -1.91574    -2.85500
C     -0.65778     1.77296     0.76419
C      0.09531     1.26833     1.94784
O     -0.62803     1.20995    -0.32356
O     -1.37454     2.84675     0.99082
H     -1.83630     3.14627     0.16389
H      0.24648     2.06281     2.67322
H     -0.50189     0.47265     2.39236
H      1.03954     0.84754     1.61752
C     -2.69661     2.89066    -2.26417
C     -3.46660     3.34026    -3.47338
O     -2.67184     3.52797    -1.22202
O     -2.06452     1.74803    -2.43173
H     -1.52038     1.53510    -1.62658
H     -2.78285     3.48211    -4.30756
H     -4.18123     2.57165    -3.75890
H     -3.98122     4.26813    -3.25263
C      5.22623     0.01591    -0.15938
C      6.61941     0.34156     0.28996
O      4.73420     0.45075    -1.18641
O      4.58717    -0.78783     0.67180
H      3.67020    -0.95958     0.35771
H      6.57797     0.84862     1.25123
H      7.18169    -0.57900     0.42603
H      7.10036     0.97392    -0.44597
C     -3.13713    -0.57883     0.99573
C     -4.20335     0.41582     0.63795
O     -2.55611    -0.57784     2.05830
O     -2.88400    -1.43251     0.00723
H     -2.19104    -2.06140     0.29898
H     -4.92763    -0.01536    -0.04639
H     -4.69169     0.76693     1.54150
H     -3.74120     1.27293     0.15102
