 72
-2063.3257448648774
C      3.71492     1.47621     0.56511
C      4.19588     2.81035     1.05558
O      3.86434     1.10048    -0.58569
O      3.09726     0.77222     1.49120
H      2.82072    -0.10642     1.13418
H      4.77644     2.68184     1.96565
H      4.79436     3.28652     0.28711
H      3.32858     3.42378     1.28878
C      0.12110     4.76921     1.34572
C      0.11965     5.40195     2.70323
O      0.53645     3.64565     1.12831
O     -0.35273     5.55594     0.39284
H     -0.37359     5.05595    -0.44306
H     -0.26732     4.69367     3.43150
H      1.14933     5.62316     2.98171
H     -0.46321     6.31603     2.70118
C     -3.68082     4.83675    -2.81728
C     -4.84608     5.71488    -3.16272
O     -3.77505     3.62061    -2.75879
O     -2.55999     5.49454    -2.59132
H     -1.82327     4.87544    -2.37534
H     -5.08973     5.56944    -4.21259
H     -5.70968     5.40789    -2.58022
H     -4.60426     6.75544    -2.98028
C     -1.07341    -5.85449    -0.29527
C     -0.45454    -7.21000    -0.20072
O     -1.38450    -5.19575     0.69511
O     -1.24457    -5.41861    -1.51734
H     -1.66260    -4.51455    -1.53277
H      0.54134    -7.09404     0.22172
H     -1.03910    -7.82331     0.48022
H     -0.39655    -7.66436    -1.18295
C     -0.64702     2.58911    -2.01040
C      0.53969     1.71442    -1.81302
O     -0.59290     3.81601    -1.90044
O     -1.75650     1.95811    -2.29728
H     -2.51011     2.58779    -2.45186
H      1.44467     2.28543    -1.97667
H      0.53260     1.34711    -0.78814
H      0.49687     0.86397    -2.48198
C     -2.34885    -2.20968    -0.60694
C     -2.65335    -0.75802    -0.75882
O     -2.21876    -2.97328    -1.55066
O     -2.22896    -2.60268     0.65225
H     -1.98824    -3.55597     0.69437
H     -2.88089    -0.54563    -1.79490
H     -3.49537    -0.50677    -0.11894
H     -1.80091    -0.16107    -0.43751
C      2.23294    -1.79561    -0.72814
C      1.50202    -3.01016    -1.20172
O      2.45656    -1.58475     0.45597
O      2.60263    -0.98406    -1.69024
H      3.13076    -0.23394    -1.32045
H      0.90761    -2.78472    -2.07908
H      2.21957    -3.78839    -1.44805
H      0.87626    -3.37666    -0.39875
C     -0.08446     0.54729     2.17007
C     -0.08922    -0.69015     3.01822
O     -0.31166     0.54000     0.97913
O      0.20104     1.65064     2.85620
H      0.28859     2.39119     2.22088
H     -0.97984    -1.27318     2.80534
H      0.76542    -1.30106     2.73175
H     -0.03036    -0.45189     4.07701
C      1.76989    -4.60418     2.01278
C      2.94969    -4.06487     2.76318
O      1.83621    -5.26160     1.00152
O      0.60898    -4.25220     2.58404
H     -0.11779    -4.61185     2.04858
H      2.76447    -4.10556     3.83291
H      3.83782    -4.62908     2.49886
H      3.09593    -3.02357     2.48195
