 80
-2292.5944114064746
C      1.34061    -0.29386    -2.47991
C      2.07038    -1.44962    -3.09023
O      0.40578     0.26571    -3.03172
O      1.78014     0.04589    -1.28711
H      1.32850     0.87317    -0.98064
H      2.35910    -1.19566    -4.10867
H      2.93675    -1.69540    -2.49047
H      1.39615    -2.30345    -3.13073
C     -4.39547     2.78846     0.70844
C     -4.54372     3.73809     1.85384
O     -4.18271     1.58799     0.87015
O     -4.47537     3.34115    -0.47331
H     -4.44123     2.64972    -1.19937
H     -5.06386     4.63715     1.53964
H     -5.06534     3.24437     2.66799
H     -3.54624     3.99972     2.20359
C      0.28212    -6.94073    -1.32584
C      0.59860    -8.33306    -1.78493
O     -0.13708    -6.71158    -0.20054
O      0.51179    -6.00552    -2.22159
H      0.24386    -5.11156    -1.87535
H      1.32074    -8.77244    -1.10128
H     -0.30476    -8.93564    -1.73308
H      0.98881    -8.32144    -2.79604
C      1.33410     5.08800     2.63708
C      2.07719     6.36499     2.92524
O      1.85237     4.06676     2.25580
O      0.01850     5.21828     2.85018
H     -0.43359     4.36782     2.68691
H      2.03783     6.57795     3.99258
H      3.11043     6.26193     2.61262
H      1.60471     7.19602     2.40592
C     -0.63295    -3.43329    -0.13210
C     -1.00547    -2.04680     0.27042
O     -0.19727    -3.68166    -1.25005
O     -0.78100    -4.34747     0.79445
H     -0.56695    -5.24835     0.43362
H     -0.08906    -1.46399     0.32828
H     -1.63786    -1.61849    -0.50014
H     -1.50686    -2.03061     1.23200
C     -1.10351     1.79398     2.59421
C      0.28688     1.46755     3.00776
O     -1.49388     2.92128     2.33643
O     -1.90359     0.73882     2.50567
H     -2.76187     1.02925     2.15409
H      0.58157     2.12259     3.82217
H      0.37555     0.42655     3.29073
H      0.95042     1.66853     2.17412
C      3.85671     0.57957     1.06600
C      3.97085     2.06597     1.01675
O      4.61885    -0.17178     0.47709
O      2.86394     0.14862     1.81899
H      2.73802    -0.82392     1.69858
H      3.08368     2.48444     0.55027
H      4.00029     2.46676     2.02474
H      4.86018     2.34764     0.46422
C     -3.67263     0.54114    -2.28183
C     -3.23454    -0.23525    -3.47831
O     -4.35766     1.54814    -2.34417
O     -3.24880     0.03938    -1.13315
H     -3.60683     0.56403    -0.37976
H     -3.45232    -1.29109    -3.33582
H     -3.72807     0.14034    -4.36754
H     -2.15638    -0.13079    -3.58330
C     -0.38124     2.84486    -1.18659
C     -0.90604     4.15141    -0.68903
O      0.51421     2.24040    -0.62139
O     -0.98603     2.38236    -2.26221
H     -0.49991     1.57980    -2.58109
H     -1.38442     3.96772     0.27076
H     -0.07442     4.82640    -0.50711
H     -1.61668     4.57973    -1.38698
C      3.15027    -3.12379     0.56889
C      2.85687    -4.57693     0.35331
O      2.55161    -2.45053     1.39131
O      4.07808    -2.64091    -0.22691
H      4.30878    -1.70579     0.02949
H      2.31513    -4.68354    -0.58243
H      3.77481    -5.15295     0.28373
H      2.23650    -4.94067     1.16302
