 80
-2292.590772049797
C      2.02415    -2.19342     1.66549
C      1.01516    -3.29477     1.61219
O      1.84194    -1.15853     2.28025
O      3.12242    -2.43016     0.97232
H      3.74733    -1.66346     1.08486
H      1.48299    -4.24799     1.83927
H      0.19994    -3.08185     2.29150
H      0.61464    -3.36145     0.60565
C     -1.59231     0.48524     1.64326
C     -0.22077     1.07257     1.61031
O     -2.60718     1.17929     1.66857
O     -1.64378    -0.82131     1.67414
H     -2.55863    -1.16304     1.49528
H      0.25503     0.94754     2.58102
H      0.38754     0.55183     0.88121
H     -0.27398     2.12118     1.35036
C     -1.52598    -4.05275    -1.35146
C     -2.99973    -4.02164    -1.13938
O     -0.83456    -5.03693    -1.17137
O     -1.01471    -2.88686    -1.73527
H     -0.04371    -2.99393    -1.92743
H     -3.20564    -3.42339    -0.25275
H     -3.47844    -3.53065    -1.98035
H     -3.38212    -5.02648    -1.00084
C     -2.93105     0.27267    -1.95612
C     -3.07645     1.76490    -2.00811
O     -3.79720    -0.52119    -2.23457
O     -1.71467    -0.10203    -1.53552
H     -1.63682    -1.06935    -1.59681
H     -3.19783     2.13680    -0.99281
H     -2.18530     2.21993    -2.42793
H     -3.95220     2.02624    -2.59404
C      2.27434    -4.12394    -1.73667
C      3.76079    -4.03350    -1.83750
O      1.52023    -3.25207    -2.14808
O      1.83655    -5.21340    -1.14512
H      0.84730    -5.22550    -1.16542
H      4.12129    -3.45162    -0.99175
H      4.20599    -5.02259    -1.80862
H      4.03278    -3.50950    -2.74738
C     -2.05707     4.60293     1.76455
C     -1.92031     5.99778     2.29083
O     -2.13512     4.33948     0.57626
O     -2.08047     3.67212     2.69960
H     -2.22407     2.79741     2.27719
H     -1.74316     5.99280     3.36047
H     -1.10402     6.48891     1.76667
H     -2.83300     6.54709     2.07007
C      0.89626     4.16760    -0.96428
C      2.18165     4.66703    -1.54961
O      0.66840     2.99826    -0.70382
O      0.01646     5.12965    -0.73971
H     -0.80126     4.74916    -0.33878
H      2.96068     4.60550    -0.79043
H      2.49155     4.02139    -2.36530
H      2.06656     5.69421    -1.87717
C     -4.96359    -1.04276     0.63302
C     -6.17154    -1.62961    -0.01245
O     -4.01726    -1.70805     1.02898
O     -5.00452     0.26944     0.72988
H     -4.16416     0.60552     1.10428
H     -6.21752    -1.27918    -1.04065
H     -6.09999    -2.70999     0.00657
H     -7.06816    -1.29310     0.50329
C      4.38132     0.81162     1.59329
C      5.33633     1.95710     1.49251
O      4.67313    -0.33235     1.27582
O      3.18812     1.15652     2.03236
H      2.61476     0.36009     2.12159
H      5.10193     2.49458     0.57402
H      5.20078     2.62964     2.33520
H      6.35506     1.58764     1.44563
C      3.11193     0.81960    -1.39611
C      3.73096    -0.43008    -1.95356
O      3.69306     1.87770    -1.32394
O      1.86612     0.62121    -0.96801
H      1.43196     1.48800    -0.82105
H      2.99949    -1.23138    -1.99612
H      4.12680    -0.22435    -2.94692
H      4.55874    -0.72051    -1.31034
