 48
-1375.544951584956
C     -2.13306     1.95518    -1.10619
C     -3.46698     2.37944    -0.57067
O     -1.39498     2.65516    -1.75541
O     -1.81719     0.69906    -0.74779
H     -0.92449     0.50826    -1.07368
H     -3.31638     2.78561     0.42915
H     -3.87729     3.16022    -1.20285
H     -4.14931     1.53652    -0.50598
C      2.07090    -3.14225     0.25304
C      1.99623    -4.49023     0.89425
O      1.15447    -2.69932    -0.43839
O      3.16161    -2.47315     0.49552
H      3.15818    -1.59375     0.01387
H      1.71240    -5.21971     0.14027
H      2.94424    -4.75318     1.35177
H      1.20200    -4.47434     1.63790
C      0.12967     1.32833     1.91259
C      0.16069    -0.13843     2.20545
O      1.10524     1.92328     1.48356
O     -1.02858     1.89875     2.14618
H     -1.00324     2.85583     1.88502
H      0.08622    -0.31076     3.27680
H     -0.67447    -0.63211     1.72163
H      1.09947    -0.53395     1.83979
C     -0.18805     4.78803     0.40886
C     -0.46793     5.91999    -0.52730
O     -0.99694     4.38469     1.22971
O      1.01067     4.26205     0.25244
H      1.10235     3.45019     0.80563
H     -0.67599     5.49636    -1.50803
H     -1.33118     6.47731    -0.18259
H      0.40552     6.56033    -0.61076
C      2.14992     0.36072    -1.27357
C      2.23365     1.70221    -1.90678
O      3.10657    -0.19698    -0.76805
O      0.94166    -0.19536    -1.28926
H      1.00172    -1.13460    -0.98448
H      3.11826     1.74342    -2.53670
H      1.33511     1.91339    -2.47159
H      2.34686     2.44482    -1.11845
C     -1.83129    -4.74609     0.23380
C     -3.00468    -5.60828    -0.13936
O     -1.61816    -4.29831     1.33226
O     -1.02178    -4.53772    -0.81956
H     -0.29908    -3.94522    -0.54845
H     -3.59543    -5.81810     0.74494
H     -3.61536    -5.09428    -0.88001
H     -2.65423    -6.53514    -0.58962
