 56
-1604.7976209357673
C      5.10652     1.25844    -0.27722
C      6.05392     2.32889     0.17369
O      5.48509     0.15718    -0.64069
O      3.83536     1.61508    -0.24539
H      3.26869     0.86415    -0.54109
H      6.67888     1.93440     0.97018
H      6.70674     2.58909    -0.65562
H      5.50961     3.20319     0.51210
C     -0.95383     0.55854    -2.15190
C     -2.16661     1.40035    -2.40512
O     -0.92124    -0.64436    -2.25321
O      0.11337     1.28535    -1.79107
H      0.84879     0.67794    -1.61003
H     -2.02253     2.39651    -2.00105
H     -2.33373     1.46559    -3.48036
H     -3.03148     0.92061    -1.95669
C     -0.55515     2.82297     1.12996
C      0.83875     3.35873     1.01398
O     -1.52381     3.39509     0.65598
O     -0.64191     1.68186     1.78754
H     -6.25687     1.67049     0.99402
H      1.06081     3.51695    -0.03792
H      0.88959     4.32134     1.51985
H      1.54628     2.66009     1.44352
C      0.80491    -3.04852     1.60151
C      0.76576    -1.56528     1.41120
O      0.69375    -3.87854     0.73146
O      0.99675    -3.40252     2.88993
H      1.01421    -4.36832     2.91005
H      0.06997    -1.11248     2.10769
H      1.75246    -1.14579     1.58481
H      0.45331    -1.34335     0.39902
C     -3.08249    -1.88869    -0.19131
C     -2.61458    -3.07195    -0.97248
O     -4.05364    -1.22686    -0.47443
O     -2.29728    -1.61280     0.86494
H     -2.64351    -0.80751     1.27873
H     -1.97433    -3.70117    -0.36432
H     -3.48159    -3.61790    -1.33721
H     -2.05113    -2.70836    -1.82974
C     -4.17006     1.47330     1.33323
C     -5.55846     0.93001     1.36694
O     -3.22548     0.92475     1.89969
O     -4.03587     2.57867     0.64403
H     -3.09588     2.90194     0.65248
H     -1.58261     1.39303     1.85593
H     -5.58019     0.04256     0.73669
H     -5.80493     0.63007     2.38205
C      2.70975    -1.49288    -1.53822
C      1.78460    -2.51524    -2.09022
O      2.32565    -0.45003    -1.00432
O      3.97930    -1.78222    -1.65753
H      4.54881    -1.06175    -1.27402
H      1.39974    -3.09815    -1.24937
H      0.94117    -2.02585    -2.56642
H      2.31478    -3.17284    -2.77157
