 80
-2292.5855584633555
C     -1.77235     0.13444    -2.45751
C     -2.61569     1.31922    -2.15353
O     -1.20753    -0.02604    -3.52613
O     -1.67231    -0.74889    -1.47013
H     -1.17617    -1.54481    -1.78760
H     -3.66238     1.02794    -2.12586
H     -2.37792     1.69506    -1.16441
H     -2.46452     2.08369    -2.90796
C     -5.53785    -1.30770     0.08798
C     -6.76212    -1.31456    -0.76644
O     -5.56243    -1.17835     1.30071
O     -4.42488    -1.44532    -0.60085
H     -3.63692    -1.26366    -0.05791
H     -6.66793    -2.06780    -1.54190
H     -7.63846    -1.48377    -0.15288
H     -6.83598    -0.33889    -1.24466
C      3.99186    -0.54415     1.62629
C      5.13008     0.42834     1.70011
O      4.11606    -1.65173     1.12957
O      2.85692    -0.09492     2.11879
H      2.16495    -0.81031     2.08680
H      4.77899     1.40238     2.01653
H      5.87919     0.05829     2.39661
H      5.59796     0.49419     0.72194
C     -0.48760     2.11995     1.24078
C      0.76850     2.91490     1.42456
O     -1.57684     2.43771     1.64824
O     -0.26769     0.98013     0.56671
H     -1.07521     0.43915     0.57024
H      1.31257     2.98167     0.48750
H      0.51545     3.90688     1.78958
H      1.40892     2.41666     2.15046
C      1.09271    -2.87967     1.03144
C     -0.16959    -3.58589     0.66345
O      1.15250    -2.06684     1.94295
O      2.13607    -3.19938     0.29268
H      2.93041    -2.68468     0.59798
H     -0.01293    -4.21182    -0.20443
H     -0.51342    -4.17094     1.51320
H     -0.92979    -2.84039     0.44141
C     -4.77208     2.26265     1.13187
C     -4.48853     3.70266     1.42025
O     -4.81446     1.76934     0.02830
O     -4.97580     1.54678     2.24672
H     -5.13285     0.62588     1.98775
H     -5.09162     4.04054     2.25922
H     -3.43748     3.80049     1.68442
H     -4.68983     4.29574     0.53328
C      3.32074     0.78825    -1.70787
C      2.18435    -0.17044    -1.86802
O      3.19945     1.86191    -1.13609
O      4.45680     0.37462    -2.21328
H      5.17193     1.05008    -2.07366
H      1.48613     0.22079    -2.60206
H      2.55618    -1.13604    -2.18824
H      1.65891    -0.25448    -0.92103
C     -2.59097    -0.88815     2.75569
C     -1.54920    -0.51637     3.75584
O     -2.45508    -0.75622     1.54964
O     -3.68731    -1.38510     3.30471
H     -4.35696    -1.53431     2.61161
H     -1.45654     0.56698     3.76085
H     -1.82738    -0.87591     4.74128
H     -0.59641    -0.93150     3.44085
C      0.45552    -2.86831    -3.31225
C      1.48342    -3.94664    -3.48763
O     -0.29385    -2.84068    -2.34768
O      0.43303    -1.96773    -4.26568
H     -0.22420    -1.25626    -4.04263
H      0.98460    -4.91327    -3.50569
H      2.04478    -3.79402    -4.40256
H      2.14951    -3.93683    -2.62728
C      6.25825     3.13307    -0.99435
C      7.41593     4.04008    -0.69639
O      6.36312     2.12925    -1.68226
O      5.13347     3.51233    -0.42676
H      4.38594     2.91559    -0.69130
H      7.54529     4.11775     0.38067
H      8.31540     3.64931    -1.15665
H      7.20429     5.03714    -1.07584
