 48
-1375.538341378117
C     -1.43906    -0.09698     1.48628
C     -2.19398     1.19410     1.51797
O     -1.99830    -1.18172     1.50183
O     -0.12676     0.03991     1.45199
H      0.31150    -0.84499     1.44499
H     -3.10357     1.09317     0.93471
H     -2.47142     1.39235     2.55167
H     -1.58723     2.01339     1.15481
C      0.42064    -3.43259     1.61268
C      1.15599    -4.72467     1.70817
O      0.99827    -2.35515     1.47726
O     -0.87667    -3.53667     1.66638
H     -1.31026    -2.63912     1.60642
H      1.29665    -5.10646     0.69624
H      2.13035    -4.56195     2.15866
H      0.58255    -5.45044     2.27628
C     -1.93090     6.84183    -0.48546
C     -2.85042     8.00732    -0.70034
O     -0.84384     6.76478    -1.03865
O     -2.39901     5.93083     0.33949
H     -1.74498     5.19297     0.45342
H     -3.76842     7.87491    -0.13983
H     -2.34216     8.91674    -0.38962
H     -3.06028     8.09957    -1.76293
C      0.36390     3.80573    -0.05510
C      1.17973     2.55376     0.02898
O     -0.63701     3.98004     0.63009
O      0.80363     4.68375    -0.92264
H      0.19746     5.47381    -0.95928
H      1.28607     2.25284     1.06542
H      0.64071     1.75265    -0.47065
H      2.14562     2.70059    -0.44204
C      3.38900    -2.57147    -1.15764
C      4.63984    -2.35081    -1.95554
O      2.57728    -3.43955    -1.40360
O      3.25696    -1.72157    -0.14460
H      2.44718    -1.92897     0.35165
H      5.22753    -3.26570    -1.94927
H      4.36863    -2.14925    -2.98922
H      5.21339    -1.52725    -1.54651
C     -0.78259    -4.75034    -1.56303
C     -2.28250    -4.64076    -1.54990
O     -0.16961    -5.78717    -1.58026
O     -0.19984    -3.53567    -1.51199
H      0.76994    -3.63603    -1.53303
H     -2.61940    -3.87809    -2.24901
H     -2.71991    -5.60260    -1.79894
H     -2.60324    -4.34589    -0.55183
