 48
-1375.5451503619195
C     -3.52376     0.26246    -1.66851
C     -4.46333     1.12288    -2.45599
O     -3.86547    -0.61351    -0.91208
O     -2.24348     0.59183    -1.87953
H     -1.69672     0.07667    -1.25681
H     -5.46047     0.69727    -2.41901
H     -4.48155     2.11772    -2.01263
H     -4.12643     1.21489    -3.48624
C      2.70742    -0.06988     0.80224
C      1.66901     0.99602     0.73999
O      2.46162    -1.21066     1.19640
O      3.90042     0.30079     0.42513
H      4.54679    -0.45894     0.47119
H      1.56432     1.43001     1.73293
H      1.95440     1.76850     0.03619
H      0.71015     0.57202     0.46807
C     -1.15463     3.53541    -1.55262
C     -0.78575     3.77248    -2.98562
O     -2.25361     3.81159    -1.09989
O     -0.17603     2.99899    -0.85130
H     -0.49408     2.67375     0.02866
H     -0.98038     2.84990    -3.53080
H     -1.39298     4.56960    -3.40006
H      0.27264     4.00060    -3.05937
C     -2.38777     1.73155     1.50222
C     -2.90043     0.70720     2.46608
O     -1.20867     2.02209     1.39668
O     -3.34634     2.28998     0.78966
H     -2.96055     2.92119     0.13339
H     -2.06843     0.23981     2.97759
H     -3.56098     1.18652     3.18713
H     -3.47498    -0.03109     1.91367
C      5.33878    -2.87672     0.77907
C      6.36501    -3.96808     0.72115
O      5.61013    -1.71547     0.51246
O      4.13897    -3.28347     1.13979
H      3.50484    -2.52734     1.16505
H      6.81588    -3.97758    -0.26754
H      7.15384    -3.74672     1.43557
H      5.91069    -4.92620     0.94406
C     -0.93965    -2.17083     0.29656
C     -2.09412    -3.10939     0.13243
O     -0.89959    -1.02185    -0.10193
O      0.07476    -2.73524     0.94497
H      0.82318    -2.11493     1.01317
H     -1.81966    -3.87487    -0.59361
H     -2.29263    -3.60554     1.07995
H     -2.96782    -2.57407    -0.21598
