 32
-917.0142756007072
C      0.81805    -2.49510    -3.21970
C      2.03131    -3.28684    -3.62051
O     -0.07878    -2.19706    -3.96874
O      0.83879    -2.16796    -1.91848
H      0.04773    -1.64298    -1.70516
H      2.79829    -3.23503    -2.85539
H      1.73701    -4.32391    -3.77337
H      2.40377    -2.90872    -4.56885
C     -2.41238    -0.62079    -1.26752
C     -2.77071    -1.43525    -2.46637
O     -1.25409    -0.50555    -0.86593
O     -3.42493    -0.03731    -0.68668
H     -3.13702     0.51269     0.09691
H     -3.84779    -1.49221    -2.57784
H     -2.31310    -0.99113    -3.34600
H     -2.33393    -2.42513    -2.36461
C      3.04211     1.45350     2.76044
C      2.61086     0.55895     1.63792
O      2.31862     1.93279     3.59625
O      4.37163     1.69882     2.74219
H      4.54471     2.28329     3.48999
H      2.31842     1.17608     0.78988
H      3.41618    -0.10343     1.32978
H      1.73646    -0.00622     1.94071
C     -1.56606     1.68377     1.71145
C     -1.24702     2.62251     2.82805
O     -2.71114     1.43624     1.36821
O     -0.50731     1.14668     1.13335
H     -0.78499     0.54531     0.40173
H     -0.17647     2.70245     2.96502
H     -1.68754     3.59011     2.60041
H     -1.72061     2.25018     3.73282
