 64
-1834.0724180323396
C     -2.84663    -3.18412    -0.75404
C     -2.74083    -4.63087    -1.12411
O     -3.27753    -2.80133     0.32116
O     -2.40017    -2.37382    -1.69195
H     -2.57279    -1.43004    -1.45427
H     -3.16847    -4.79833    -2.10923
H     -1.68621    -4.89740    -1.16552
H     -3.24210    -5.23933    -0.37976
C      2.71599     2.99632     0.98844
C      2.35936     4.40781     1.33637
O      2.85701     2.61978    -0.16527
O      2.83476     2.21284     2.03077
H      3.03356     1.28452     1.74623
H      2.64843     5.07396     0.53099
H      1.28123     4.47259     1.46680
H      2.83037     4.70624     2.26772
C      1.78141    -3.77222    -3.00896
C      2.38341    -4.36658    -4.24949
O      1.52839    -2.57837    -2.92044
O      1.56245    -4.63496    -2.04228
H      1.12649    -4.18419    -1.27034
H      1.69818    -4.21734    -5.08099
H      3.30249    -3.83587    -4.48612
H      2.57829    -5.42340    -4.10632
C      3.70335    -0.57458     0.05738
C      4.09657    -1.98109    -0.26962
O      3.35468    -0.23263     1.17583
O      3.74749     0.24219    -0.97188
H      3.46231     1.14701    -0.69684
H      3.19239    -2.54381    -0.49432
H      4.73748    -2.00773    -1.14180
H      4.57293    -2.44743     0.58596
C     -3.75507     0.44781    -0.08693
C     -4.27547     1.84468     0.05586
O     -3.09045     0.08738    -1.04627
O     -4.06814    -0.33730     0.91808
H     -3.77049    -1.26420     0.73740
H     -3.66732     2.51193    -0.54022
H     -5.30309     1.87918    -0.30477
H     -4.26532     2.14027     1.09934
C     -1.48862     3.84669     3.03827
C     -1.86495     4.49202     4.34106
O     -1.99254     4.16148     1.96908
O     -0.56204     2.91978     3.15782
H     -0.43238     2.44698     2.29731
H     -2.34339     3.75382     4.98163
H     -0.97094     4.84207     4.85097
H     -2.54595     5.31474     4.15785
C     -0.39827     2.34629    -0.24817
C      0.16680     1.79381    -1.51143
O     -0.38877     1.73984     0.81250
O     -0.93426     3.54012    -0.37661
H     -1.33678     3.82587     0.48440
H      0.69975     2.56759    -2.05609
H      0.82260     0.96234    -1.27776
H     -0.66211     1.44019    -2.12385
C      0.25200    -2.19582     0.08370
C     -0.40395    -1.58067     1.26981
O      0.41526    -3.39633    -0.05210
O      0.66246    -1.31749    -0.80568
H      0.97131    -1.76105    -1.63600
H     -1.20683    -0.92800     0.94258
H     -0.79549    -2.35110     1.92594
H      0.31765    -0.95805     1.79318
