 72
-2063.3295308145125
C      6.00047     1.32926    -0.17450
C      7.15267     1.18746     0.77176
O      5.89775     0.68345    -1.20354
O      5.11141     2.22087     0.21942
H      4.36986     2.27278    -0.42539
H      7.82827     0.41760     0.41942
H      7.67485     2.13863     0.84933
H      6.78002     0.93836     1.76205
C     -2.32685     1.87777    -2.55011
C     -3.66778     1.27332    -2.85132
O     -1.32029     1.22384    -2.34791
O     -2.36460     3.19920    -2.53482
H     -1.48901     3.54453    -2.26170
H     -3.94899     1.52358    -3.87324
H     -3.62714     0.19849    -2.72801
H     -4.40873     1.70620    -2.18309
C      0.25099     4.17387    -0.53482
C     -0.69599     5.04365     0.22585
O      0.10440     3.86298    -1.70242
O      1.28174     3.76115     0.18755
H      1.84575     3.19484    -0.36382
H     -0.14569     5.80713     0.77022
H     -1.40516     5.49052    -0.46178
H     -1.22732     4.42175     0.94181
C     -5.52988    -2.40826     1.14627
C     -6.83932    -2.51960     1.87094
O     -5.46521    -2.12647    -0.04060
O     -4.47488    -2.64345     1.89708
H     -3.64460    -2.54396     1.36284
H     -7.37444    -1.57797     1.77863
H     -7.44227    -3.28621     1.39039
H     -6.67677    -2.76393     2.91426
C      2.34616    -1.51987     1.44148
C      3.27959    -0.49730     0.87426
O      1.99245    -2.49993     0.80492
O      1.94973    -1.25956     2.66430
H      1.30025    -1.94792     2.97524
H      2.76803     0.45632     0.79730
H      4.13370    -0.36140     1.52953
H      3.60012    -0.82510    -0.10469
C     -2.24306    -2.35491    -0.78438
C     -0.96831    -2.52230    -1.54455
O     -2.30726    -2.43737     0.43337
O     -3.28787    -2.09401    -1.53713
H     -4.11875    -2.08573    -0.98805
H     -0.20983    -2.95041    -0.90052
H     -1.13368    -3.14811    -2.41829
H     -0.64412    -1.53909    -1.88435
C      2.91672     1.48969    -2.50407
C      1.67808     1.43004    -3.32533
O      3.03416     2.21692    -1.51844
O      3.87690     0.69741    -2.90826
H      4.66311     0.74465    -2.30211
H      1.04960     2.27985    -3.09994
H      1.93669     1.38988    -4.37942
H      1.12253     0.52779    -3.08092
C     -1.00753     1.17647     0.93539
C     -0.93011     0.54795     2.29099
O     -1.76669     2.05905     0.63106
O     -0.11065     0.65539     0.08249
H     -0.32534     0.96843    -0.82174
H     -1.74673     0.90896     2.90829
H     -0.97831    -0.53571     2.20177
H      0.02187     0.80048     2.75154
C     -0.31067    -3.91082     2.70068
C     -1.51426    -4.71238     3.07714
O      0.10380    -2.97862     3.37257
O      0.25844    -4.30674     1.58284
H      0.97479    -3.67603     1.31133
H     -2.33871    -4.41328     2.43156
H     -1.32411    -5.76909     2.91391
H     -1.78135    -4.52008     4.11018
