 72
-2063.32798642518
C      4.37981     0.21912    -1.54212
C      5.17466     1.17356    -0.71249
O      4.62956    -0.97194    -1.62262
O      3.38063     0.79064    -2.18782
H      2.82017     0.09682    -2.60826
H      4.60578     1.41258     0.18491
H      6.12268     0.72504    -0.43585
H      5.33020     2.09695    -1.26446
C      0.21286     3.78906    -1.10190
C      1.65979     3.93390    -1.44173
O     -0.21803     3.89266     0.04445
O     -0.55587     3.55410    -2.13107
H     -1.49196     3.36931    -1.84068
H      2.25672     3.72847    -0.56104
H      1.92303     3.25976    -2.25010
H      1.83090     4.95815    -1.77272
C     -3.32374     2.63588    -0.16507
C     -4.64396     2.00854     0.12584
O     -2.92824     2.84272    -1.30170
O     -2.62136     2.94956     0.91033
H     -1.75878     3.34218     0.64991
H     -5.42319     2.74824    -0.05835
H     -4.79351     1.17886    -0.55793
H     -4.67391     1.67696     1.15614
C     -1.49806    -1.20432    -1.29876
C     -0.72888    -0.16117    -2.02957
O     -1.01681    -2.27485    -0.96778
O     -2.75488    -0.87847    -1.05736
H     -3.17796    -1.58953    -0.52688
H     -1.22928     0.79520    -1.94095
H      0.28481    -0.13131    -1.64431
H     -0.67064    -0.45153    -3.07932
C      1.82406    -1.15983     1.64203
C      1.50798    -2.59840     1.36843
O      1.93941    -0.67449     2.74109
O      1.95448    -0.44353     0.51208
H      2.14440     0.48589     0.75574
H      1.46853    -3.14559     2.30540
H      0.54423    -2.66799     0.86472
H      2.25942    -3.02572     0.70947
C     -3.32948    -4.12239     0.32220
C     -4.21479    -5.25093     0.75684
O     -3.64771    -2.94639     0.47196
O     -2.19320    -4.48902    -0.21932
H     -1.68265    -3.69255    -0.51186
H     -5.18798    -5.13927     0.28638
H     -3.76930    -6.20433     0.49981
H     -4.36424    -5.17964     1.83167
C      2.09614     2.51568     2.41021
C      2.78133     2.22097     3.70386
O      2.46474     2.09320     1.32799
O      1.02927     3.29231     2.54078
H      0.63588     3.46997     1.66743
H      3.85436     2.33642     3.56910
H      2.41041     2.87282     4.48659
H      2.59029     1.17821     3.95338
C     -2.43611    -0.28195     2.88465
C     -1.41267     0.61758     3.51487
O     -3.62688    -0.10206     2.91192
O     -1.87311    -1.33897     2.25976
H     -2.58174    -1.85511     1.84673
H     -0.61437     0.03765     3.96932
H     -0.97568     1.23590     2.73286
H     -1.88910     1.26325     4.24638
C      2.01745    -2.38323    -3.03459
C      1.11183    -3.41797    -3.63144
O      1.89996    -1.18953    -3.26210
O      2.91543    -2.88108    -2.20938
H      3.57454    -2.17894    -1.95767
H      0.64667    -3.02326    -4.52830
H      1.66952    -4.32385    -3.84866
H      0.34223    -3.65926    -2.90247
