 48
-1375.5369842632172
C      0.74825     1.66856     2.28784
C      0.08735     2.94499     2.71165
O      1.83253     1.59711     1.75832
O     -0.00933     0.59402     2.54417
H      0.46467    -0.18176     2.20830
H     -0.84468     3.05988     2.16489
H     -0.15254     2.91991     3.77249
H      0.73957     3.78060     2.48808
C      0.65427    -2.37121    -1.95592
C     -0.36717    -2.57867    -3.02525
O      0.47961    -2.72723    -0.79012
O      1.74128    -1.76035    -2.34799
H      2.39166    -1.67894    -1.59348
H     -1.31983    -2.17651    -2.69038
H     -0.04888    -2.10888    -3.94957
H     -0.51939    -3.64548    -3.16849
C      0.33937     2.49492    -0.86388
C      1.44809     1.59858    -1.31060
O      0.43500     3.70956    -0.79196
O     -0.75167     1.83522    -0.53343
H     -1.47576     2.46644    -0.28765
H      1.24335     1.23802    -2.31458
H      2.39453     2.12220    -1.28308
H      1.48212     0.74064    -0.64915
C     -2.47681     4.76161     0.35529
C     -3.59027     5.65705     0.81884
O     -2.63199     3.55603     0.21677
O     -1.33781     5.37919     0.14230
H     -0.65352     4.74718    -0.21463
H     -3.90316     5.33598     1.80988
H     -3.25858     6.68829     0.84263
H     -4.44276     5.54132     0.15450
C      3.02522    -1.33503     0.82165
C      3.94132    -0.89437     1.91034
O      3.37680    -1.47423    -0.33612
O      1.76901    -1.54855     1.20635
H      1.25977    -1.98636     0.47684
H      3.88678    -1.59085     2.74372
H      4.95333    -0.83321     1.52848
H      3.61124     0.08094     2.26106
C     -2.35370    -5.14365    -0.94413
C     -3.15279    -6.32275    -0.46524
O     -2.67612    -4.40676    -1.84272
O     -1.21437    -5.00926    -0.24767
H     -0.73995    -4.22565    -0.57131
H     -4.07286    -6.39019    -1.03383
H     -2.56936    -7.23349    -0.58683
H     -3.37249    -6.21297     0.59481
