 48
-1375.54710854837
C      0.21491     1.03951     1.46137
C      0.53725    -0.00199     2.49023
O      0.02328     2.20585     1.70597
O      0.11596     0.52525     0.22953
H     -0.00794     1.26004    -0.41540
H      1.29189    -0.68714     2.11353
H      0.87556     0.48354     3.40170
H     -0.36634    -0.57363     2.70385
C      5.19147    -2.62951     0.39129
C      6.58610    -2.86077     0.89859
O      4.95529    -1.97445    -0.61187
O      4.26648    -3.19909     1.13277
H      3.35487    -3.01441     0.77803
H      7.29920    -2.39418     0.23022
H      6.67924    -2.44327     1.89842
H      6.77425    -3.92935     0.96782
C     -0.38645     3.80704    -1.12708
C      0.52718     4.98539    -1.29740
O     -0.08970     2.66162    -1.40113
O     -1.56684     4.15834    -0.63927
H     -2.09672     3.35363    -0.49242
H     -0.01419     5.80656    -1.75882
H      0.86177     5.31478    -0.31565
H      1.38624     4.70903    -1.89753
C     -3.00796     1.63733     1.09984
C     -3.11198     2.81870     2.00965
O     -2.95301     1.75053    -0.12252
O     -2.95704     0.48174     1.70609
H     -2.97887    -0.28375     1.06555
H     -3.45178     3.68284     1.44981
H     -3.78474     2.60555     2.83614
H     -2.11672     3.01260     2.40541
C      1.60808    -2.22538    -0.90756
C      0.22462    -2.17709    -1.47673
O      1.84704    -2.69413     0.19552
O      2.52583    -1.72678    -1.70038
H      3.43047    -1.80672    -1.29716
H      0.22670    -2.53665    -2.50060
H     -0.42750    -2.77988    -0.85716
H     -0.11052    -1.14677    -1.46892
C     -3.12793    -1.44526    -1.19020
C     -3.41323    -2.60416    -2.09341
O     -3.13968    -1.53295     0.02717
O     -2.84245    -0.33095    -1.83062
H     -2.81490     0.43176    -1.20768
H     -2.49745    -2.88800    -2.60519
H     -3.77920    -3.44238    -1.51198
H     -4.13619    -2.31774    -2.85333
