 40
-1146.2723400060038
C      4.65110    -4.80962    -0.68623
C      4.80493    -6.29342    -0.86421
O      5.48195    -3.99694    -1.01121
O      3.47521    -4.48910    -0.12861
H      3.41196    -3.52296    -0.04775
H      4.71811    -6.52812    -1.92368
H      5.80094    -6.58769    -0.54437
H      4.04454    -6.82980    -0.30712
C      3.54346    -0.77160    -0.09101
C      4.93583    -0.94390    -0.58875
O      2.82938    -1.70096     0.26833
O      3.13767     0.48080    -0.07216
H      2.20687     0.54736     0.23499
H      4.90431    -1.44230    -1.55461
H      5.42640     0.01913    -0.67425
H      5.47507    -1.61000     0.07673
C     -2.01050     3.26731    -0.24456
C     -2.62470     4.44338    -0.92412
O     -2.62291     2.45170     0.41867
O     -0.69506     3.18304    -0.43170
H     -0.37046     2.38284     0.01422
H     -3.30615     4.93767    -0.23803
H     -1.85412     5.12073    -1.27435
H     -3.23321     4.09401    -1.75463
C     -6.10363     2.60566    -0.49028
C     -7.53351     2.15771    -0.63230
O     -5.68219     3.65073    -0.92070
O     -5.35631     1.70560     0.16499
H     -4.43881     2.03215     0.22399
H     -7.75350     2.02312    -1.68965
H     -7.70450     1.23249    -0.09331
H     -8.18616     2.94495    -0.26231
C     -0.05991    -0.10860     1.45813
C     -1.36644     0.10314     2.14642
O      0.49417     0.75111     0.78292
O      0.44609    -1.31043     1.63730
H      1.28900    -1.42318     1.14253
H     -1.55103    -0.70153     2.84901
H     -1.35488     1.06798     2.64341
H     -2.15674     0.14715     1.40199
