 48
-1375.5535402638588
C     -4.80573    -2.21095     1.59045
C     -6.23998    -2.51668     1.27522
O     -3.90237    -2.47103     0.80681
O     -4.61409    -1.62925     2.75133
H     -3.64160    -1.50520     2.92529
H     -6.51842    -1.98092     0.37063
H     -6.34003    -3.57892     1.06714
H     -6.87958    -2.22578     2.10027
C      1.51640    -0.86900    -1.67127
C      0.05373    -0.96233    -1.96575
O      1.99800    -1.26503    -0.62223
O      2.22233    -0.30580    -2.62803
H      3.16910    -0.21646    -2.34384
H     -0.10729    -1.40654    -2.94478
H     -0.43232    -1.54947    -1.19563
H     -0.36384     0.03994    -1.97825
C     -1.92101     1.80342     0.14660
C     -3.14736     1.32666     0.86514
O     -0.81331     1.80675     0.66530
O     -2.14678     2.18532    -1.08766
H     -1.30043     2.46360    -1.52777
H     -3.45293     0.37225     0.44306
H     -2.91885     1.19374     1.91481
H     -3.96595     2.02843     0.73338
C      1.26978     2.72683    -1.73830
C      2.50648     3.19626    -2.43449
O      0.15401     2.82321    -2.21961
O      1.50112     2.17886    -0.56020
H      0.64535     2.02102    -0.08174
H      3.09134     3.82465    -1.76759
H      3.11062     2.33140    -2.69713
H      2.23863     3.74320    -3.33204
C      5.12484    -0.16378    -0.67389
C      6.54108     0.13777    -0.27679
O      4.68821     0.12416    -1.78072
O      4.41258    -0.74629     0.26105
H      3.49294    -0.94175    -0.06401
H      6.73457    -0.20907     0.73151
H      7.21547    -0.34246    -0.98156
H      6.70585     1.21042    -0.34720
C     -1.14301    -1.46267     2.34416
C      0.27944    -1.11983     2.63975
O     -2.04214    -1.28770     3.15162
O     -1.34715    -1.92892     1.12798
H     -2.30396    -2.17548     1.00269
H      0.37783    -0.03664     2.57906
H      0.52287    -1.42925     3.65342
H      0.93514    -1.58212     1.91165
