 56
-1604.8035164422197
C      4.04337     0.76016    -2.61915
C      5.40079     0.89106    -3.22825
O      3.48160    -0.31446    -2.46775
O      3.52359     1.90388    -2.22839
H      2.61526     1.76204    -1.86838
H      5.62198     0.01292    -3.82501
H      5.45770     1.79611    -3.82517
H      6.12112     0.96615    -2.41640
C     -2.19408    -2.87026    -1.70402
C     -0.97913    -3.54303    -2.26144
O     -2.87941    -2.10028    -2.35827
O     -2.44196    -3.16678    -0.44215
H     -3.28680    -2.73197    -0.15119
H     -1.08903    -3.66427    -3.33382
H     -0.12171    -2.90162    -2.07439
H     -0.81308    -4.49594    -1.76932
C     -1.80330    -1.09683     2.83309
C     -2.47254    -2.38964     3.16904
O     -2.41503    -0.13239     2.39268
O     -0.50986    -1.09986     3.04939
H      1.48968     3.59206     2.26587
H     -2.52717    -2.49400     4.25128
H     -3.46672    -2.39128     2.74054
H     -1.88481    -3.21501     2.77780
C      0.46424     0.38593    -1.37420
C     -1.00041     0.28831    -1.09529
O      1.09368     1.42332    -1.25998
O      1.00991    -0.75243    -1.74189
H      1.95736    -0.61522    -2.02081
H     -1.40414     1.28144    -0.94954
H     -1.50415    -0.20888    -1.91526
H     -1.15347    -0.30111    -0.19405
C     -4.85261    -0.78661    -0.01978
C     -5.62828     0.16960     0.83079
O     -4.64106    -1.94348     0.31189
O     -4.40863    -0.25375    -1.13855
H     -3.89343    -0.92043    -1.65555
H     -6.22789     0.82570     0.20772
H     -6.24384    -0.38523     1.52955
H     -4.91872     0.77697     1.38913
C     -0.14595     2.25488     2.05938
C      0.53808     3.54603     1.74996
O      0.46200     1.25573     2.41137
O     -1.44896     2.28015     1.87552
H     -1.84307     1.39559     2.08972
H     -0.11445    -0.21921     2.81352
H      0.71747     3.55967     0.67641
H     -0.09889     4.38641     2.01062
C      4.60875     1.28362     0.83407
C      3.73476     0.11387     1.17224
O      5.72482     1.22657     0.38597
O      3.98756     2.46236     1.05592
H      4.57092     3.14730     0.70775
H      3.10613    -0.10223     0.30976
H      4.35452    -0.75560     1.36912
H      3.08814     0.32869     2.01829
