 72
-2063.3254027288945
C      2.65397     0.04540    -1.02599
C      1.18063     0.25729    -1.13580
O      3.28979     0.35419    -0.02940
O      3.21106    -0.48367    -2.09239
H      4.19882    -0.52628    -1.98879
H      0.97671     0.96883    -1.93301
H      0.69223    -0.68010    -1.39104
H      0.81924     0.63977    -0.19284
C     -2.61909     4.43030     0.19973
C     -2.92245     5.31181     1.36425
O     -1.55197     4.41349    -0.38856
O     -3.62111     3.62606    -0.13961
H     -3.34718     3.08210    -0.89668
H     -2.36011     4.93894     2.21929
H     -2.57502     6.32021     1.15375
H     -3.98465     5.30019     1.57983
C     -2.74846    -1.37916    -1.27473
C     -2.89146    -2.64516    -0.50006
O     -2.11275    -1.30272    -2.31585
O     -3.34375    -0.34110    -0.72037
H     -3.20677     0.46696    -1.27100
H     -2.88636    -3.50091    -1.16319
H     -2.02621    -2.74281     0.14504
H     -3.78354    -2.61533     0.11255
C     -0.69993    -3.87642     2.61167
C     -0.16659    -5.26925     2.55441
O      0.00145    -2.89326     2.37709
O     -1.96949    -3.78879     2.90674
H     -2.27506    -2.84299     2.91618
H      0.83220    -5.29496     2.98009
H     -0.83431    -5.95179     3.06874
H     -0.09528    -5.54365     1.50286
C     -2.00136     1.86872    -3.13681
C     -1.58521     3.18274    -3.71117
O     -2.84973     1.78450    -2.24848
O     -1.39634     0.82594    -3.63609
H     -1.70516    -0.00800    -3.18448
H     -2.44274     3.63914    -4.20087
H     -1.27991     3.83797    -2.89856
H     -0.77811     3.04816    -4.42337
C     -2.12215    -0.31497     2.35881
C     -2.72396     1.03883     2.19473
O     -2.74940    -1.28583     2.74273
O     -0.83677    -0.36848     2.04324
H     -0.47063    -1.27065     2.20097
H     -2.14843     1.59719     1.46820
H     -3.75613     0.94384     1.87670
H     -2.68341     1.57451     3.14030
C      6.46816    -0.26263    -0.78365
C      7.96278    -0.37724    -0.69628
O      5.85363    -0.60256    -1.78391
O      5.90104     0.22657     0.29620
H      4.91327     0.27748     0.18973
H      8.40683     0.15275    -1.53494
H      8.31802     0.02634     0.24463
H      8.24028    -1.42453    -0.78929
C      0.31979     2.88866     1.94062
C      1.51683     2.28522     2.61451
O     -0.61799     3.36601     2.53565
O      0.38187     2.82303     0.60576
H     -0.30139     3.40590     0.20996
H      1.95300     3.02654     3.28299
H      1.18576     1.44402     3.22104
H      2.24717     1.94647     1.88704
C      0.65970    -3.56941    -0.95477
C      1.05584    -3.43266    -2.39279
O     -0.25759    -4.25735    -0.57266
O      1.41500    -2.82912    -0.13353
H      1.07264    -2.93590     0.77016
H      2.01141    -2.93280    -2.48530
H      1.09438    -4.42370    -2.84304
H      0.28281    -2.86276    -2.90908
