 48
-1375.548688511025
C     -0.96619    -2.42869     2.26324
C     -1.65327    -2.72016     3.55772
O     -1.31807    -2.86787     1.18425
O      0.07849    -1.61547     2.38504
H      0.45385    -1.46746     1.50203
H     -2.58400    -2.15631     3.57095
H     -1.90047    -3.77762     3.60384
H     -1.02987    -2.42718     4.39518
C      0.99276    -1.37447    -1.40172
C     -0.21729    -2.11800    -1.84840
O      1.21404    -1.09163    -0.22624
O      1.80756    -1.01283    -2.35848
H      2.64287    -0.60721    -1.98325
H     -0.51268    -2.81200    -1.07077
H     -1.02356    -1.39878    -1.97809
H     -0.04055    -2.62946    -2.78942
C     -0.65401     1.95292     1.24562
C     -0.99952     1.85340     2.69641
O     -1.40297     1.57575     0.35738
O      0.53333     2.46517     1.01276
H      0.69273     2.48938     0.03498
H     -0.32323     1.14147     3.16367
H     -0.86413     2.82076     3.17775
H     -2.02464     1.51486     2.79542
C      0.23189     1.85585    -2.44160
C      0.54612     1.93504    -3.90398
O      0.92167     2.38494    -1.58692
O     -0.83061     1.12933    -2.15733
H     -1.05951     1.22960    -1.19631
H      1.15542     1.07102    -4.16311
H     -0.36299     1.91074    -4.49778
H      1.11687     2.83638    -4.10374
C      4.13979     0.48290    -0.25219
C      5.33434     1.29625     0.14465
O      3.98971     0.05511    -1.38861
O      3.26794     0.28939     0.71255
H      2.50586    -0.23994     0.38218
H      5.25112     2.27626    -0.32078
H      5.37945     1.40536     1.22215
H      6.23670     0.82571    -0.23584
C     -3.68879    -0.63651     0.64366
C     -4.74977     0.24532     0.05032
O     -3.48734    -0.73866     1.83094
O     -2.97778    -1.27467    -0.29409
H     -2.32189    -1.85981     0.13888
H     -4.29665     1.19976    -0.21560
H     -5.16049    -0.20414    -0.84935
H     -5.52777     0.41820     0.78725
