 80
-2292.5854502734164
C      2.63032    -0.98456    -0.89479
C      1.35543    -1.55547    -1.41065
O      3.23783    -0.08151    -1.44259
O      3.05488    -1.55075     0.22348
H      3.94452    -1.20570     0.48319
H      0.56061    -1.29554    -0.71929
H      1.14301    -1.13117    -2.38598
H      1.44011    -2.63670    -1.46616
C     -7.68815     0.73609    -0.30408
C     -8.91931     1.20079    -1.02314
O     -7.16187     1.40408     0.57463
O     -7.23060    -0.42881    -0.70563
H     -6.39432    -0.66092    -0.21901
H     -9.23270     0.46255    -1.75167
H     -9.70654     1.38065    -0.29561
H     -8.70212     2.14859    -1.50941
C     -1.65207    -3.19317    -0.78114
C     -2.54327    -2.58122    -1.81735
O     -1.64425    -2.82063     0.38454
O     -0.87356    -4.15525    -1.22516
H     -0.22763    -4.41695    -0.52176
H     -2.65044    -3.25019    -2.66586
H     -3.50587    -2.34658    -1.37345
H     -2.09877    -1.64563    -2.14937
C      5.19145     2.38057     2.57804
C      4.68521     3.47799     3.47123
O      6.07881     2.50739     1.77284
O      4.53375     1.22768     2.78935
H      4.86199     0.56098     2.16375
H      5.13493     4.42037     3.17878
H      3.60098     3.54126     3.40487
H      4.94283     3.25593     4.50612
C      1.25131    -3.86068     1.58087
C      2.50380    -3.98419     2.39294
O      0.99470    -4.58650     0.63443
O      0.44693    -2.88668     1.97438
H     -0.36191    -2.86796     1.40347
H      3.14771    -3.13415     2.17723
H      2.26558    -3.96687     3.45309
H      3.01481    -4.90477     2.13316
C     -4.50712    -0.34315     1.50494
C     -3.24074    -0.78194     2.16262
O     -4.96938    -0.91686     0.52705
O     -5.07489     0.70919     2.04652
H     -5.89576     0.95267     1.54513
H     -3.36384    -1.79320     2.54266
H     -2.45338    -0.83713     1.41900
H     -2.97785    -0.10144     2.96355
C     -2.57490     2.06039    -1.63994
C     -3.99647     2.17682    -1.18730
O     -1.66808     2.72919    -1.16154
O     -2.40716     1.17836    -2.59625
H     -1.46927     1.17546    -2.92951
H     -4.44758     1.19240    -1.14406
H     -4.03143     2.65923    -0.21811
H     -4.55293     2.77209    -1.90780
C      0.16810     1.22232     1.31435
C      0.93765     0.77907     2.52155
O     -0.05191     0.52718     0.35228
O     -0.26399     2.48370     1.41607
H     -0.73718     2.70556     0.59613
H      1.80219     1.42172     2.66954
H      0.30328     0.85215     3.40503
H      1.25950    -0.24624     2.38448
C      6.23594    -0.06429     0.03425
C      7.69607     0.12968     0.26567
O      5.50074    -0.62390     0.84974
O      5.79228     0.42046    -1.09096
H      4.81370     0.25565    -1.20210
H      8.08652    -0.68577     0.86635
H      8.21782     0.20879    -0.68193
H      7.81379     1.06079     0.81720
C      0.91030     2.10741    -3.33637
C      2.15592     2.24093    -4.15175
O      0.07069     1.24139    -3.52878
O      0.81676     2.99688    -2.36378
H     -0.01873     2.86759    -1.86761
H      2.43793     3.28609    -4.22942
H      2.94931     1.70605    -3.63179
H      2.00912     1.79574    -5.13016
