 64
-1834.056527561521
C     -3.68242    -1.24127    -0.90438
C     -3.95065    -2.66626    -1.24704
O     -3.91030    -0.76853     0.20901
O     -3.16737    -0.53109    -1.87394
H     -2.98520     0.40236    -1.59611
H     -3.07908    -3.23795    -0.92889
H     -4.81835    -3.01807    -0.69815
H     -4.08219    -2.77729    -2.31759
C      2.05790     0.86015    -0.55681
C      1.01861     1.79481    -1.07482
O      2.44398     0.86921     0.61094
O      2.53681     0.02441    -1.44474
H      3.14568    -0.62461    -1.02009
H      1.34385     2.81923    -0.91097
H      0.85856     1.61677    -2.12866
H      0.10032     1.67084    -0.50811
C      1.87172    -4.51893    -0.47900
C      0.84525    -5.53535    -0.87896
O      2.27064    -4.34891     0.65010
O      2.29269    -3.79280    -1.52298
H      2.92867    -3.13375    -1.20228
H     -0.11249    -5.02738    -0.99318
H      1.10964    -5.98419    -1.83235
H      0.75524    -6.28744    -0.10287
C      4.36107    -1.88158     0.93813
C      5.11632    -3.02897     1.51957
O      4.06169    -1.81736    -0.25183
O      4.02736    -0.95193     1.80264
H      3.49338    -0.23827     1.37951
H      5.40737    -2.80708     2.53954
H      4.46522    -3.90086     1.49544
H      5.98370    -3.24198     0.90056
C     -0.80034    -1.97357     1.24659
C      0.56303    -2.04796     1.85600
O     -1.16642    -2.67048     0.33074
O     -1.57974    -1.04376     1.82126
H     -2.43808    -1.02857     1.36597
H      0.65837    -2.96683     2.42808
H      1.28679    -2.10397     1.05112
H      0.75515    -1.19167     2.48780
C     -3.15850     2.52361    -0.14784
C     -3.02154     3.97761     0.14031
O     -2.73079     1.99643    -1.17198
O     -3.76680     1.83772     0.79334
H     -3.82343     0.87646     0.56713
H     -2.02298     4.13891     0.54280
H     -3.09507     4.54519    -0.78032
H     -3.76798     4.29119     0.86271
C     -0.37822     1.99448     2.57277
C     -1.40794     1.93779     3.66113
O     -0.53418     2.54237     1.50776
O      0.75193     1.35820     2.90780
H      1.36131     1.38426     2.15223
H     -1.51880     0.91265     4.00378
H     -1.08720     2.54754     4.50635
H     -2.35130     2.30600     3.27648
C     -0.39569     4.46718    -2.61188
C      0.68402     4.84869    -3.58190
O     -0.58038     4.99219    -1.54306
O     -1.14193     3.45441    -3.07669
H     -1.77324     3.19262    -2.38614
H      0.28472     4.90655    -4.59144
H      1.12227     5.79620    -3.28871
H      1.45880     4.08277    -3.57877
