 48
-1375.5360077608177
C      1.54914     1.52687     1.49958
C      2.65070     1.23980     2.46648
O      1.65008     2.29870     0.56155
O      0.44781     0.83285     1.73518
H     -0.27789     1.14829     1.16036
H      3.44148     1.97300     2.35256
H      2.26000     1.24313     3.48043
H      3.03793     0.24432     2.25533
C      5.35109    -4.05949     0.39606
C      6.42207    -4.97506     0.91319
O      5.07494    -3.99435    -0.79258
O      4.75226    -3.35168     1.32800
H      4.05272    -2.76462     0.93527
H      7.35675    -4.74640     0.40757
H      6.53048    -4.86403     1.98574
H      6.15907    -5.99947     0.66101
C     -1.49693     2.91236    -0.55946
C     -2.63399     3.55170    -1.27301
O     -1.63640     1.96414     0.22187
O     -0.32707     3.42700    -0.82373
H      0.40205     2.98598    -0.30707
H     -2.28279     4.41170    -1.83335
H     -3.06437     2.80536    -1.93838
H     -3.39087     3.83780    -0.54608
C     -5.17604     2.24062     1.52912
C     -6.48089     1.61045     1.92956
O     -4.95782     3.42406     1.47596
O     -4.25186     1.31056     1.22209
H     -3.43268     1.76293     0.97026
H     -7.20093     2.38682     2.16294
H     -6.85365     0.98701     1.11837
H     -6.33052     0.96886     2.79649
C      2.56159    -1.76478    -0.89425
C      1.43576    -0.90820    -1.38828
O      2.90279    -1.76709     0.28149
O      3.13365    -2.49480    -1.81838
H      3.86516    -3.04994    -1.43520
H      1.22831    -1.11156    -2.43377
H      0.55970    -1.11098    -0.77979
H      1.69973     0.13784    -1.25475
C     -2.65693    -0.50072    -2.00762
C     -2.84805    -1.78767    -2.75967
O     -2.84281     0.60159    -2.46191
O     -2.23704    -0.71545    -0.75393
H     -2.17471     0.14732    -0.31082
H     -1.89586    -2.31147    -2.82508
H     -3.54268    -2.43210    -2.22450
H     -3.21868    -1.57483    -3.75564
