 24
-687.7612542651003
C     -0.02637    -1.81210     0.52235
C     -1.03245    -2.87047     0.82071
O      0.50575    -1.12716     1.38422
O      0.22811    -1.66959    -0.76244
H      0.92501    -0.97963    -0.89909
H     -2.02044    -2.43634     0.67868
H     -0.91311    -3.69947     0.12992
H     -0.93014    -3.19457     1.85076
C      2.67665     0.79846    -0.22686
C      3.77164     1.78575    -0.51221
O      2.05097     0.25498    -1.12571
O      2.45277     0.59075     1.05021
H      1.72024    -0.07505     1.18033
H      3.34559     2.63373    -1.04335
H      4.23736     2.11169     0.41037
H      4.50173     1.32173    -1.16998
C     -2.61956     0.85237    -0.18160
C     -1.31540     1.59124    -0.16798
O     -2.82452    -0.22001     0.32777
O     -3.58167     1.51850    -0.85108
H     -4.37237     0.96643    -0.81530
H     -0.71137     1.22042     0.65170
H     -0.78454     1.39620    -1.09810
H     -1.46225     2.66376    -0.07940
