 80
-2292.5888300330384
C      0.95210     1.73387     2.42283
C      0.52806     3.08361     2.88617
O      2.09414     1.46937     2.05592
O      0.00694     0.81931     2.42336
H      0.38661    -0.07156     2.25308
H      1.31669     3.52055     3.49430
H      0.38501     3.70679     2.00488
H     -0.40248     3.01998     3.43223
C     -3.39918     0.27846     3.82100
C     -4.03973     1.41700     4.54467
O     -3.48762     0.13844     2.60345
O     -2.74292    -0.55688     4.58461
H     -2.35584    -1.30813     4.05612
H     -3.78729     1.38187     5.59847
H     -3.70836     2.34826     4.09144
H     -5.11786     1.34925     4.41062
C      0.38652    -5.95703    -1.49210
C     -0.15658    -7.34012    -1.69210
O      1.36710    -5.73971    -0.79288
O     -0.28348    -5.01276    -2.11344
H      0.17126    -4.13565    -2.00591
H      0.56826    -7.92294    -2.25645
H     -0.27614    -7.81846    -0.72365
H     -1.10034    -7.30309    -2.22385
C      1.88803     3.15479    -0.91081
C      2.15867     3.70505    -2.27944
O      1.02978     3.56759    -0.16803
O      2.69270     2.13363    -0.59753
H      2.52054     1.86194     0.32213
H      2.16151     2.90112    -3.00902
H      1.38767     4.42303    -2.53241
H      3.13536     4.18540    -2.30677
C      2.14731    -2.60145    -1.40498
C      2.90013    -1.31687    -1.56583
O      0.97522    -2.72823    -1.72588
O      2.85339    -3.57523    -0.87294
H      2.31689    -4.41308    -0.84549
H      3.75427    -1.46906    -2.22374
H      2.23875    -0.57123    -1.98802
H      3.26917    -0.99033    -0.59890
C     -2.65138     3.35776     1.17973
C     -2.50362     4.41216     0.12607
O     -2.55016     3.56082     2.36713
O     -2.89314     2.14339     0.66487
H     -3.05485     1.52109     1.39268
H     -1.46750     4.74009     0.09817
H     -2.78559     4.02222    -0.84544
H     -3.11804     5.26899     0.39230
C      0.33508     3.14447    -5.63994
C      0.71487     3.92711    -6.86419
O      0.82105     2.05584    -5.37299
O     -0.54576     3.75512    -4.87780
H     -0.80853     3.17715    -4.11403
H      1.43316     3.36462    -7.44833
H     -0.17334     4.13532    -7.45631
H      1.14119     4.88142    -6.56156
C     -1.66405    -2.65894     1.98069
C     -0.98699    -3.79436     1.28375
O     -1.72558    -2.55340     3.19330
O     -2.18693    -1.77810     1.15414
H     -2.65889    -1.07500     1.65399
H     -0.07289    -3.43353     0.81561
H     -0.74498    -4.57519     1.99404
H     -1.62646    -4.17855     0.49753
C      2.47927    -1.72793     2.35897
C      2.95757    -3.08537     2.76705
O      1.31839    -1.47241     2.09594
O      3.44770    -0.83556     2.27648
H      3.05360     0.05531     2.14313
H      3.34559    -3.59114     1.88575
H      3.75836    -2.99414     3.49591
H      2.13278    -3.65981     3.17221
C     -0.59973     1.19137    -2.47201
C     -0.96272     0.47798    -1.21589
O     -1.19007     2.18850    -2.85683
O      0.43661     0.68684    -3.11597
H      0.57157     1.14850    -3.98176
H     -2.03916     0.48672    -1.09244
H     -0.57545    -0.53563    -1.21915
H     -0.53073     1.04353    -0.39274
