 48
-1375.5364917490986
C     -3.15973     0.09519     2.29808
C     -3.86322    -1.20603     2.55634
O     -3.54414     1.17464     2.67467
O     -2.03084    -0.07985     1.58656
H     -1.61088     0.78789     1.46057
H     -4.78148    -1.01388     3.10050
H     -4.07283    -1.70776     1.61523
H     -3.21493    -1.85942     3.13809
C      2.22312    -3.21111    -1.30304
C      2.26385    -4.48528    -2.08433
O      2.22268    -2.11073    -1.83892
O      2.18593    -3.37426    -0.00026
H      2.23310    -2.49488     0.46018
H      2.34840    -5.33222    -1.41321
H      1.35509    -4.56609    -2.67397
H      3.10602    -4.45543    -2.77240
C      0.65989     2.49806    -1.89796
C      1.17935     2.20943    -3.27013
O      1.06428     3.41790    -1.20340
O     -0.27213     1.65487    -1.49525
H     -0.51573     1.86799    -0.56625
H      0.39809     1.76468    -3.87839
H      1.56159     3.11979    -3.72080
H      1.99367     1.49316    -3.18004
C     -0.94520     3.53444     1.35711
C     -1.82752     3.94082     2.48849
O     -0.76312     2.36050     1.03483
O     -0.35885     4.52239     0.72910
H      0.19990     4.16390    -0.01311
H     -1.36510     3.61594     3.41910
H     -1.96244     5.01625     2.49212
H     -2.77400     3.41389     2.41485
C      2.53648     0.07265     0.59131
C      2.69989     1.34192     1.36633
O      2.32439    -0.99961     1.13533
O      2.62858     0.21835    -0.71278
H      2.49314    -0.66148    -1.16357
H      3.55684     1.23984     2.03029
H      2.83335     2.17806     0.69148
H      1.81360     1.48026     1.97997
C     -1.54450    -3.04197    -0.94700
C     -0.86998    -1.70843    -0.93901
O     -2.57121    -3.32057    -0.38308
O     -0.87211    -3.96908    -1.67884
H     -1.37749    -4.78701    -1.61317
H     -0.07424    -1.71468    -0.20126
H     -0.43037    -1.48879    -1.90640
H     -1.58767    -0.95379    -0.65802
