 72
-2063.32415453892
C      2.50094     1.74530    -1.06973
C      3.69702     0.87445    -1.27540
O      1.82642     2.22604    -1.94915
O      2.22607     1.93361     0.23003
H      1.39044     2.41745     0.29683
H      3.37771    -0.16050    -1.17573
H      4.09600     1.03037    -2.27411
H      4.45024     1.07535    -0.51826
C     -1.12011     3.62513    -0.12027
C     -1.14626     2.88771    -1.41406
O     -0.32591     3.35226     0.78992
O     -1.98530     4.59324    -0.01700
H     -1.90980     5.07901     0.85154
H     -0.84141     1.86105    -1.25294
H     -2.12869     2.92690    -1.87220
H     -0.40743     3.34782    -2.06592
C     -1.09674     5.71764     3.20746
C     -1.13279     6.49837     4.48281
O     -1.84201     5.94558     2.26950
O     -0.18712     4.75736     3.19139
H     -0.21629     4.26824     2.34473
H     -1.03831     7.55630     4.25379
H     -2.10187     6.35433     4.95430
H     -0.33996     6.17747     5.14815
C      2.24269    -1.28704     2.40377
C      2.22312     0.13531     2.85316
O      1.52390    -2.14608     2.89266
O      3.08119    -1.51768     1.41742
H      3.06917    -2.47844     1.16659
H      1.87829     0.20364     3.87901
H      3.20630     0.58072     2.74162
H      1.54043     0.67010     2.20028
C     -1.03615    -0.07132    -3.72572
C     -0.04232     0.91816    -4.23787
O     -1.82684     0.19396    -2.82914
O     -0.98267    -1.25146    -4.30406
H     -1.69201    -1.85348    -3.94537
H      0.69133     1.10910    -3.45560
H      0.45022     0.55264    -5.13273
H     -0.55055     1.86013    -4.42566
C     -3.17033    -2.72795    -2.08606
C     -3.66111    -3.88797    -1.27851
O     -2.79925    -2.82802    -3.24460
O     -3.17315    -1.58552    -1.42534
H     -2.69504    -0.89432    -1.94455
H     -4.54310    -3.60147    -0.71238
H     -3.87321    -4.72803    -1.93028
H     -2.87870    -4.16346    -0.57331
C     -1.28285     0.04094     1.58903
C     -2.02214    -1.18930     2.00013
O     -0.36079     0.05133     0.80072
O     -1.70760     1.15345     2.18990
H     -1.16867     1.89305     1.87169
H     -1.36595    -1.79253     2.62619
H     -2.92195    -0.92290     2.54779
H     -2.26552    -1.76906     1.11296
C      0.72683    -2.32132    -1.49487
C      1.50142    -3.12549    -2.48926
O     -0.17403    -2.75139    -0.82647
O      1.15540    -1.05336    -1.40934
H      0.62816    -0.60293    -0.72706
H      2.51769    -3.27317    -2.12164
H      1.01888    -4.09003    -2.60525
H      1.54463    -2.61046    -3.44579
C      2.21350    -4.90447     1.20525
C      2.19598    -6.31750     0.70197
O      2.99820    -4.07635     0.76287
O      1.32619    -4.64431     2.13522
H      1.38654    -3.69375     2.42423
H      2.00511    -6.29912    -0.36880
H      3.17621    -6.76400     0.85232
H      1.42960    -6.88996     1.21146
