 80
-2292.585984755235
C      2.05387     0.57166     2.89240
C      0.87328     0.96992     3.71291
O      2.44951     1.23416     1.93702
O      2.62131    -0.54686     3.26912
H      3.41612    -0.75308     2.71193
H      0.73635     2.04345     3.65045
H      0.00107     0.47933     3.28675
H      1.00313     0.65298     4.74086
C     -2.84277     2.29802     3.11282
C     -3.65896     2.15243     1.87560
O     -2.71766     1.40291     3.94469
O     -2.28207     3.47281     3.25131
H     -1.77377     3.52507     4.10362
H     -3.73429     1.10628     1.60810
H     -4.65806     2.53678     2.08155
H     -3.21657     2.73626     1.07633
C     -0.74738    -2.71066    -3.91112
C     -1.39698    -2.54406    -5.24754
O     -1.34359    -3.10500    -2.92237
O      0.52526    -2.37466    -3.91029
H      0.88074    -2.40527    -2.98463
H     -0.95022    -3.23612    -5.95784
H     -2.46288    -2.72526    -5.17752
H     -1.20628    -1.53650    -5.60403
C     -0.49779     0.56056     0.02115
C     -1.39028     0.25087    -1.13429
O     -0.55998     0.03805     1.10720
O      0.42068     1.49276    -0.26698
H      0.99799     1.59540     0.50552
H     -2.37722    -0.01515    -0.77360
H     -1.43345     1.08813    -1.82046
H     -0.98261    -0.60166    -1.67497
C      0.83327    -2.95553    -0.47689
C      1.49295    -3.06053     0.86183
O      1.34662    -2.36219    -1.41615
O     -0.34236    -3.53377    -0.54674
H     -0.74030    -3.40270    -1.44871
H      1.06074    -2.30859     1.51702
H      1.31371    -4.03876     1.29924
H      2.55316    -2.86826     0.75743
C     -2.85832    -1.78758     2.28799
C     -2.40079    -3.15839     1.87868
O     -3.58799    -1.08534     1.63024
O     -2.36340    -1.42592     3.47982
H     -2.61597    -0.50517     3.64606
H     -2.76446    -3.38045     0.88310
H     -1.31674    -3.20919     1.88395
H     -2.78009    -3.89073     2.58970
C     -1.76123     1.09582    -6.87325
C     -2.78972     1.40969    -7.92046
O     -0.73506     0.48156    -7.13442
O     -2.06321     1.52296    -5.66860
H     -1.33719     1.30147    -5.02615
H     -2.33567     2.03790    -8.68323
H     -3.09546     0.48394    -8.40131
H     -3.64264     1.91019    -7.47721
C     -0.78964     2.70640     6.34491
C     -0.03780     2.89543     7.62853
O     -0.85350     3.56591     5.47946
O     -1.36476     1.52637     6.24326
H     -1.88652     1.46394     5.40729
H     -0.72951     2.83070     8.46565
H      0.69029     2.09594     7.74334
H      0.45743     3.85895     7.62922
C      5.27382    -0.35908     0.99792
C      6.57553    -0.68558     0.32852
O      4.69442    -1.15342     1.72410
O      4.81919     0.84828     0.73290
H      3.94767     0.99884     1.17196
H      6.93323     0.16462    -0.23955
H      7.29979    -0.97237     1.08645
H      6.42996    -1.54318    -0.32337
C      1.05670     0.73320    -4.36370
C      2.19644     0.77450    -3.40184
O     -0.10688     0.91022    -4.02378
O      1.41014     0.46511    -5.59823
H      0.61386     0.46247    -6.18958
H      3.07513     1.20154    -3.87762
H      1.91083     1.33594    -2.52205
H      2.42697    -0.24910    -3.11041
