 48
-1375.5320201677732
C      0.20885    -0.30720     0.99009
C      1.14953    -1.05845     1.87423
O      0.57443     0.50098     0.15017
O     -1.06289    -0.60952     1.19785
H     -1.64506    -0.10478     0.59390
H      1.34976    -2.02862     1.42296
H      2.09170    -0.53038     1.94667
H      0.69151    -1.21239     2.84655
C      6.61188    -2.99852     1.13154
C      7.53268    -3.92905     1.86557
O      6.97952    -2.35712     0.15941
O      5.39371    -2.94193     1.62665
H      4.83032    -2.31249     1.10509
H      7.01923    -4.39441     2.69899
H      7.89522    -4.68367     1.17192
H      8.39553    -3.36719     2.21438
C     -2.25667     1.83940    -1.23514
C     -3.13030     2.65059    -2.11701
O     -2.67554     0.94091    -0.49759
O     -0.98522     2.14413    -1.27771
H     -0.43808     1.53490    -0.71514
H     -3.88331     2.00748    -2.56248
H     -3.63121     3.38353    -1.48540
H     -2.52810     3.15340    -2.86593
C     -3.77718     3.33862     1.86679
C     -4.20190     4.00729     3.14274
O     -3.59321     3.90450     0.81791
O     -3.61790     2.01580     2.02645
H     -3.36224     1.63172     1.17433
H     -5.14662     3.58660     3.48277
H     -3.46089     3.82520     3.91899
H     -4.31003     5.07275     2.97475
C      4.21712    -0.62921    -0.72900
C      3.29480     0.29074    -1.46519
O      3.86093    -1.26445     0.25751
O      5.42831    -0.68784    -1.23112
H      6.00491    -1.30782    -0.70970
H      3.77657     0.65813    -2.36403
H      2.37274    -0.23337    -1.69533
H      3.02065     1.11643    -0.81355
C     -5.19552    -0.99745    -2.23156
C     -6.01256    -2.15319    -2.73604
O     -5.26345     0.12715    -2.66137
O     -4.36055    -1.36014    -1.24473
H     -3.86358    -0.57652    -0.97114
H     -7.02685    -1.81383    -2.92634
H     -5.59364    -2.48851    -3.68353
H     -6.00308    -2.97322    -2.02567
