 48
-1375.5418849293694
C     -1.23692    -1.22105     1.33925
C     -0.93163    -2.64799     1.67322
O     -1.01488    -0.28437     2.05842
O     -1.79055    -1.08859     0.11497
H     -1.86269    -0.13425    -0.09359
H     -0.01493    -2.93884     1.16207
H     -0.78462    -2.74700     2.74439
H     -1.73797    -3.29248     1.33074
C      4.81245    -2.37665    -1.25306
C      5.65844    -3.32677    -2.05016
O      3.96192    -2.77116    -0.46792
O      5.06961    -1.10729    -1.47308
H      4.48405    -0.52477    -0.91830
H      5.00882    -4.00708    -2.59459
H      6.30078    -2.78172    -2.73198
H      6.25500    -3.92380    -1.36450
C      1.09380     2.91074    -1.57768
C      2.31585     3.09877    -2.42061
O      0.79326     3.66010    -0.66191
O      0.39167     1.84086    -1.89619
H     -0.41822     1.77337    -1.33400
H      2.08340     2.90422    -3.46399
H      2.70402     4.10288    -2.28930
H      3.06179     2.37326    -2.09829
C     -2.02758     2.40380     0.60801
C     -3.20152     2.16026     1.48806
O     -1.72367     1.63884    -0.31227
O     -1.34519     3.48253     0.87253
H     -0.55039     3.57464     0.27579
H     -2.96519     1.30860     2.12255
H     -3.40740     3.03776     2.09118
H     -4.05860     1.87509     0.88692
C      2.63871     0.04972     0.76211
C      1.76476     0.99455     1.51607
O      3.49494     0.43318    -0.02302
O      2.39072    -1.22099     1.00071
H      2.98045    -1.80724     0.45630
H      0.82260     1.08853     0.98737
H      1.54113     0.61115     2.50249
H      2.23970     1.96656     1.56500
C     -5.11513    -1.63830     0.35990
C     -6.51779    -2.18248     0.32492
O     -4.81791    -0.56343     0.82106
O     -4.22851    -2.49196    -0.17364
H     -3.34246    -2.08971    -0.12741
H     -6.54279    -3.16173    -0.13953
H     -6.89673    -2.23709     1.34290
H     -7.15186    -1.48801    -0.22120
