 72
-2063.33149653457
C      4.40237     0.13996     2.34248
C      4.83906    -1.14803     2.96740
O      4.97409     0.69880     1.43782
O      3.27492     0.61330     2.88917
H      2.99083     1.39531     2.38739
H      4.26800    -1.95950     2.51683
H      5.89362    -1.30886     2.76846
H      4.64088    -1.14245     4.03595
C      2.72711     3.61009     0.84369
C      4.19019     3.76295     1.09847
O      2.09021     2.62440     1.22825
O      2.18139     4.58386     0.17735
H      1.23282     4.37583    -0.06609
H      4.49900     4.79775     0.98602
H      4.42606     3.38561     2.08897
H      4.72759     3.13907     0.38650
C     -1.04478     3.33650     0.15264
C     -2.51275     3.34591    -0.10747
O     -0.23427     3.92608    -0.54037
O     -0.68999     2.62755     1.21077
H      0.28569     2.59508     1.27234
H     -2.68156     3.09176    -1.15027
H     -3.00718     2.63720     0.54752
H     -2.89279     4.35260     0.06544
C     -2.57122    -0.87443     1.64750
C     -1.17051    -0.63854     2.09379
O     -3.36533     0.03856     1.45952
O     -2.87827    -2.13958     1.46063
H     -3.81517    -2.22285     1.14147
H     -1.00643     0.42149     2.22996
H     -0.97995    -1.17946     3.01910
H     -0.49247    -1.02082     1.33673
C      0.07075    -3.49830    -0.81547
C     -1.27688    -4.12008    -0.66552
O      0.66709    -3.45691    -1.87956
O      0.55506    -2.98739     0.29891
H      1.47721    -2.65656     0.16336
H     -2.00982    -3.37777    -0.97446
H     -1.35730    -4.98516    -1.31757
H     -1.46798    -4.38545     0.36878
C      3.52253    -1.96178    -1.24280
C      4.92490    -1.48889    -1.46817
O      3.07365    -2.22231    -0.13837
O      2.81933    -2.05160    -2.35038
H      1.95916    -2.52997    -2.18574
H      5.32316    -1.10217    -0.53818
H      5.52932    -2.32887    -1.80950
H      4.93376    -0.72507    -2.23987
C      1.42681     0.79985    -1.79040
C      1.26505     1.03374    -3.25355
O      0.65020     0.22575    -1.06135
O      2.57812     1.28882    -1.31645
H      2.56763     1.22620    -0.34842
H      1.92658     0.34933    -3.78611
H      0.23823     0.84905    -3.54282
H      1.55463     2.05534    -3.49165
C     -2.41647    -0.13721    -2.16801
C     -3.86326    -0.51445    -2.28645
O     -1.91947     0.83205    -2.68620
O     -1.73849    -1.00286    -1.40198
H     -0.83183    -0.64976    -1.28345
H     -4.25216    -0.75343    -1.30127
H     -4.42779     0.30068    -2.72705
H     -3.96886    -1.40441    -2.90597
C     -6.21337    -1.41473     0.80120
C     -7.67402    -1.70026     0.60662
O     -5.35581    -2.26692     0.60443
O     -5.94138    -0.19001     1.18385
H     -4.95965    -0.07527     1.31805
H     -7.83204    -2.05113    -0.41029
H     -7.96939    -2.50391     1.27718
H     -8.26458    -0.81195     0.79836
