 32
-917.0165471484388
C      2.06812     0.39423    -1.78434
C      3.54806     0.24059    -1.63152
O      1.51583     1.38753    -2.18892
O      1.40471    -0.71216    -1.40577
H      0.45411    -0.53155    -1.49346
H      4.04802     1.04346    -2.16270
H      3.80112     0.29050    -0.57425
H      3.86828    -0.72741    -2.00975
C     -1.66087     1.11162    -1.90863
C     -1.50478     1.61282    -3.30475
O     -1.34967    -0.03221    -1.57455
O     -2.15559     1.97920    -1.06930
H     -2.25279     1.59477    -0.15294
H     -0.44353     1.77121    -3.48350
H     -1.85742     0.85610    -4.00016
H     -2.04606     2.54361    -3.42767
C      1.87589    -1.06097     2.04865
C      1.45866    -2.33845     1.38228
O      2.91169    -0.47144     1.88742
O      0.93544    -0.60648     2.91847
H      1.29537     0.20269     3.29924
H      0.37755    -2.41447     1.35691
H      1.86861    -2.36459     0.37856
H      1.86207    -3.17373     1.95632
C     -2.15184    -0.16755     1.70514
C     -2.33440    -0.66365     3.10227
O     -2.45147     0.96230     1.35760
O     -1.63279    -1.06012     0.87903
H     -1.53783    -0.68284    -0.02890
H     -3.11787    -0.09354     3.58963
H     -2.56597    -1.72383     3.09509
H     -1.40443    -0.52049     3.64704
