 40
-1146.2807626515694
C      0.25134    -1.74404    -2.45850
C     -0.47508    -2.97236    -2.90130
O     -0.27430    -0.71791    -2.07229
O      1.57170    -1.87824    -2.52473
H      1.98657    -1.05720    -2.21050
H     -0.86729    -3.47233    -2.01800
H     -1.31738    -2.68551    -3.52557
H      0.19905    -3.63326    -3.43424
C      1.43768    -0.22668     1.16255
C      1.12250    -0.95052     2.42652
O      0.69764     0.57384     0.61253
O      2.61945    -0.56062     0.66520
H      2.78541    -0.07535    -0.16904
H      0.40495    -0.38673     3.01002
H      0.68293    -1.90992     2.15352
H      2.03901    -1.12754     2.98230
C      2.46751     1.81334    -1.93577
C      3.01970     2.72236    -2.99153
O      2.84733     0.65291    -1.80905
O      1.55380     2.35696    -1.17158
H      1.21290     1.70225    -0.51394
H      2.60108     3.71687    -2.89655
H      4.10244     2.74889    -2.90216
H      2.78377     2.30545    -3.96815
C     -2.08356    -1.71135     0.47577
C     -3.23812    -1.86563     1.41657
O     -1.32388    -2.60147     0.18020
O     -1.95782    -0.45318     0.02463
H     -1.25038    -0.42934    -0.66028
H     -2.99911    -1.34148     2.34115
H     -4.13708    -1.41893     0.99527
H     -3.40196    -2.91911     1.62015
C     -1.98946     1.71103     2.88758
C     -2.56629     2.83079     3.70986
O     -1.55327     0.68548     3.35763
O     -2.01665     1.97285     1.57939
H     -1.64702     1.21403     1.09498
H     -3.48352     2.48144     4.17994
H     -1.86811     3.08189     4.50424
H     -2.77260     3.69785     3.09188
