 80
-2292.5920361889675
C      6.39527    -1.22111     2.63311
C      7.22152    -1.79309     3.74258
O      5.75510    -0.18139     2.76109
O      6.40236    -1.91934     1.52727
H      5.77567    -1.52022     0.86752
H      6.54457    -2.24640     4.46463
H      7.90192    -2.54412     3.35971
H      7.75617    -0.99227     4.24377
C     -1.78388     2.33783     0.49776
C     -3.17125     2.41276    -0.04514
O     -1.49608     1.75396     1.53757
O     -0.89524     2.97402    -0.22666
H     -0.00829     2.95638     0.22099
H     -3.14421     2.65627    -1.10038
H     -3.68232     1.47565     0.13309
H     -3.70373     3.19837     0.49365
C     -2.42473    -1.34078    -1.25939
C     -3.66635    -0.86586    -1.93663
O     -2.30846    -2.46433    -0.80821
O     -1.45599    -0.44367    -1.19244
H     -0.61753    -0.86089    -0.86115
H     -3.74143     0.21241    -1.88680
H     -3.61866    -1.15633    -2.98510
H     -4.53185    -1.32848    -1.47561
C      2.25539    -1.11015     3.03204
C      0.77400    -0.95727     3.17501
O      2.84247    -2.15828     2.93720
O      2.88938     0.07818     3.00951
H      3.84689    -0.08724     2.92164
H      0.36776    -0.56155     2.24642
H      0.32421    -1.92303     3.37951
H      0.53910    -0.25381     3.96927
C      0.87737    -2.91605    -0.20487
C      2.20861    -3.52121     0.09800
O      0.71387    -1.71787    -0.40604
O     -0.11191    -3.77830    -0.21247
H     -0.95946    -3.31313    -0.42347
H      2.26739    -4.51738    -0.33221
H      3.00193    -2.88089    -0.26742
H      2.29850    -3.59518     1.17918
C     -3.72320    -1.23340     1.78443
C     -4.10833    -2.60811     2.23612
O     -4.37437    -0.54493     1.03369
O     -2.54287    -0.84859     2.27999
H     -2.34631     0.03938     1.94550
H     -5.17349    -2.75236     2.09019
H     -3.56583    -3.33048     1.62807
H     -3.83352    -2.75864     3.27655
C     -5.47992     0.64883    -5.01925
C     -6.89280     0.30728    -5.38853
O     -4.52704     0.02138    -5.45747
O     -5.36779     1.65550    -4.18100
H     -4.41620     1.83985    -3.97031
H     -7.12825    -0.67710    -4.98982
H     -7.57588     1.04613    -4.98648
H     -6.97507     0.24969    -6.47037
C      1.50036     2.91166     2.30764
C      2.76278     3.27468     3.01619
O      1.39352     2.88500     1.09033
O      0.50246     2.61780     3.11713
H     -0.27830     2.33664     2.58615
H      2.59814     4.16655     3.61865
H      3.04241     2.45873     3.67525
H      3.54333     3.44710     2.28636
C      4.30059     0.37529    -0.12145
C      3.26623     0.86489    -1.07459
O      4.66624    -0.78492    -0.05594
O      4.79760     1.32882     0.65132
H      5.36187     0.90705     1.32907
H      3.77242     1.25456    -1.95791
H      2.61171     0.04774    -1.35555
H      2.70189     1.66552    -0.61018
C     -1.87081     1.39968    -3.99163
C     -0.47188     1.66992    -3.54557
O     -2.82849     2.05104    -3.59673
O     -1.97740     0.39669    -4.83192
H     -2.92184     0.26755    -5.11084
H     -0.19521     0.89758    -2.83374
H      0.21055     1.61777    -4.38986
H     -0.41947     2.63671    -3.06076
