 72
-2063.320261097582
C     -0.32776    -4.13417    -0.38903
C      0.78299    -5.08724    -0.67326
O     -1.01433    -4.20840     0.62972
O     -0.51285    -3.19773    -1.28602
H     -1.31822    -2.65300    -1.07805
H      1.07506    -5.02984    -1.71533
H      1.62370    -4.81228    -0.03671
H      0.47540    -6.09469    -0.40593
C      3.16854    -0.18598    -1.64571
C      2.24643    -1.05048    -0.86209
O      2.97338     0.07822    -2.82762
O      4.19570     0.27960    -0.97415
H      4.83183     0.77498    -1.56376
H      2.80034    -1.62898    -0.12975
H      1.54461    -0.40725    -0.33272
H      1.69278    -1.69162    -1.53649
C     -5.22134     3.69528     1.61831
C     -6.25162     4.78319     1.53568
O     -5.53286     2.51439     1.69941
O     -3.98005     4.11955     1.59278
H     -3.34874     3.35554     1.66416
H     -6.88282     4.60618     0.66836
H     -6.88739     4.73510     2.41632
H     -5.77150     5.75223     1.46571
C     -3.63003    -2.27508    -0.00924
C     -5.04224    -1.79980    -0.13422
O     -2.73157    -1.93180    -0.76422
O     -3.43558    -3.10523     0.99413
H     -2.53451    -3.50231     0.93587
H     -5.12808    -1.12797    -0.98050
H     -5.70606    -2.65232    -0.25969
H     -5.32344    -1.28179     0.77778
C     -2.67741     0.87506     1.90955
C     -1.65347    -0.19550     2.04453
O     -2.38710     2.05926     1.83384
O     -3.92158     0.44394     1.85898
H     -4.55619     1.20960     1.80459
H     -2.05337    -1.03673     2.59504
H     -1.37891    -0.52162     1.04328
H     -0.76762     0.20098     2.51668
C      1.48780    -2.86810     2.67786
C      2.20028    -2.13056     3.77403
O      2.03553    -3.40306     1.74226
O      0.15725    -2.84730     2.83152
H     -0.25226    -3.33524     2.09746
H      1.76706    -2.37640     4.74054
H      3.25539    -2.37989     3.75052
H      2.07972    -1.06047     3.61119
C      5.72060     1.85007    -3.70070
C      6.71694     2.64565    -4.48756
O      5.89540     1.57013    -2.52384
O      4.65858     1.48652    -4.38754
H      4.03271     0.97808    -3.82205
H      7.66962     2.12242    -4.47946
H      6.37019     2.79018    -5.50389
H      6.86843     3.60280    -3.99538
C     -0.18678     1.30905    -1.92819
C     -1.67184     1.49519    -1.80097
O      0.63636     2.01491    -1.39838
O      0.12117     0.24979    -2.68787
H      1.08880     0.20837    -2.79780
H     -2.08294     1.77864    -2.77114
H     -2.13588     0.55787    -1.50107
H     -1.87435     2.27633    -1.07725
C      1.75699     1.89079     1.46986
C      0.96590     3.15323     1.62326
O      1.31027     0.76659     1.53425
O      3.05335     2.13585     1.23630
H      3.47604     1.29951     1.00504
H      1.49475     3.84379     2.27882
H      0.86603     3.61082     0.64146
H     -0.01972     2.92658     2.01355
