 48
-1375.5421272542537
C      1.03732    -2.33148     2.60227
C      2.48663    -2.63778     2.84427
O      0.14631    -3.14170     2.65034
O      0.84876    -1.03815     2.29048
H     -0.10139    -0.90894     2.15410
H      2.57867    -3.58788     3.36017
H      2.98291    -2.71101     1.87748
H      2.96275    -1.84570     3.41574
C      3.30648    -3.45204    -0.82542
C      4.06959    -4.73910    -0.92771
O      2.08446    -3.42384    -0.77327
O      4.06224    -2.37992    -0.78112
H      3.49914    -1.55431    -0.76779
H      5.13651    -4.54917    -0.95194
H      3.81379    -5.36631    -0.07685
H      3.75775    -5.26774    -1.82584
C     -2.95041     2.71019     0.56949
C     -3.36185     4.14325     0.64763
O     -2.86222     2.10143    -0.49583
O     -2.69584     2.15923     1.72759
H     -2.38513     1.22436     1.62484
H     -2.48203     4.74658     0.43018
H     -4.11453     4.34447    -0.10767
H     -3.72625     4.37432     1.64254
C     -0.43124     4.16157    -1.83041
C      0.61771     4.70102    -2.75710
O     -0.41771     4.27382    -0.62882
O     -1.40267     3.52669    -2.50049
H     -2.04679     3.19640    -1.85216
H      1.16154     3.87537    -3.21406
H      0.15614     5.27102    -3.56063
H      1.31208     5.32358    -2.20370
C      1.34592    -0.20304    -0.89205
C      0.58550     1.07381    -0.98846
O      2.55814    -0.24653    -0.77350
O      0.58423    -1.27374    -0.96202
H      1.13241    -2.09866    -0.88563
H      1.14079     1.88347    -0.53425
H      0.43354     1.30325    -2.03979
H     -0.38667     0.96893    -0.52282
C     -2.26337    -1.08063     0.51435
C     -2.18080    -2.56634     0.56766
O     -1.83986    -0.34927     1.40577
O     -2.83605    -0.60121    -0.56708
H     -2.86248     0.38415    -0.54764
H     -2.34291    -2.90631     1.58408
H     -2.89050    -3.01211    -0.12019
H     -1.16783    -2.85529     0.29349
