 32
-917.0136611891605
C      2.14737     0.87673    -1.76433
C      3.54477     0.39980    -2.01345
O      1.69554     1.92587    -2.15051
O      1.42595    -0.01456    -1.05799
H      0.50749     0.30447    -1.00636
H      4.02371     0.12254    -1.07915
H      3.51814    -0.48610    -2.64708
H      4.10341     1.18485    -2.51193
C     -2.02095     1.03150    -1.61013
C     -1.38379     1.70325    -2.77948
O     -1.36816     0.50984    -0.70629
O     -3.32728     1.04971    -1.62140
H     -3.71257     0.61339    -0.81056
H     -2.13612     1.99752    -3.50269
H     -0.82447     2.56567    -2.42816
H     -0.65516     1.02935    -3.22093
C      3.75782    -1.36607     1.85340
C      2.26740    -1.23098     1.77070
O      4.50097    -1.60479     0.93665
O      4.21542    -1.17396     3.11300
H      5.17444    -1.27179     3.06801
H      2.01338    -0.17508     1.69409
H      1.90207    -1.72231     0.87716
H      1.79267    -1.63890     2.66098
C     -3.79408    -0.45744     1.49514
C     -4.47623    -0.97606     2.72412
O     -4.41444    -0.06619     0.51922
O     -2.47802    -0.46497     1.56851
H     -2.07735    -0.11333     0.73884
H     -5.12060    -0.19643     3.12236
H     -5.11217    -1.81250     2.44620
H     -3.74669    -1.28108     3.46489
