 32
-917.0162811937546
C      1.41762    -3.19838     2.12546
C      2.53382    -4.19858     2.01253
O      0.74992    -3.03363     3.11608
O      1.24657    -2.50003     0.99113
H      0.49116    -1.89905     1.10436
H      2.11321    -5.19948     2.08639
H      3.06263    -4.08558     1.07276
H      3.21119    -4.06882     2.85312
C     -1.20540     0.08681     1.89395
C     -0.98196    -0.38607     3.29234
O     -0.91306    -0.59571     0.91398
O     -1.72991     1.28065     1.79895
H     -1.85883     1.55045     0.84351
H     -1.44222    -1.36241     3.41498
H      0.08397    -0.53072     3.44870
H     -1.38305     0.32967     4.00130
C      1.61692     1.84191    -2.25245
C      1.53058     1.44136    -0.81080
O      0.69786     2.21923    -2.93438
O      2.86776     1.73090    -2.74250
H      2.82516     2.00107    -3.66808
H      2.38243     1.79661    -0.23941
H      0.60921     1.82808    -0.39428
H      1.51060     0.35527    -0.73890
C     -2.09671     1.30748    -1.67018
C     -2.51252     1.78117    -3.01827
O     -2.04376     2.02335    -0.68175
O     -1.76925     0.02802    -1.63832
H     -1.51030    -0.22410    -0.72666
H     -1.60882     2.01324    -3.57912
H     -3.05185     0.99340    -3.53502
H     -3.11466     2.67860    -2.92496
