 72
-2063.3219154775697
C      3.65187    -0.01688    -2.30522
C      4.71859     0.88109    -1.76631
O      3.73782    -1.23323    -2.27118
O      2.61326     0.62013    -2.81237
H      1.94651    -0.03344    -3.14708
H      5.01982     0.51542    -0.78894
H      5.58241     0.82793    -2.42879
H      4.35674     1.90040    -1.70886
C     -0.28412     3.46571    -1.56295
C      0.90838     3.78516    -2.39729
O     -0.23086     3.31180    -0.34437
O     -1.39644     3.34727    -2.23646
H     -2.15125     3.12371    -1.63382
H      1.17434     2.91189    -2.98683
H      0.66304     4.59157    -3.08504
H      1.73714     4.05970    -1.75689
C     -3.27584     2.47654     0.66082
C     -4.46729     2.10243     1.48081
O     -3.32460     2.64079    -0.54706
O     -2.15965     2.60790     1.35842
H     -1.41862     2.88063     0.76949
H     -4.61980     2.84713     2.25912
H     -5.34025     2.03750     0.84207
H     -4.28319     1.14963     1.97130
C     -2.11235    -1.27706    -0.50328
C     -1.78604    -0.02803    -1.24013
O     -1.43082    -2.28512    -0.56630
O     -3.21356    -1.19193     0.22165
H     -3.29911    -1.98699     0.79160
H     -1.39329     0.68678    -0.52220
H     -1.02987    -0.22407    -1.98859
H     -2.68766     0.39151    -1.67528
C      2.32921    -0.75201     1.02595
C      2.00134    -2.21019     0.90992
O      3.34828    -0.29747     1.47831
O      1.34540     0.02708     0.53179
H      1.54095     0.95749     0.73087
H      2.37636    -2.57451    -0.04480
H      2.48301    -2.75798     1.71537
H      0.92671    -2.35623     0.93728
C     -2.64697    -4.45680     1.57491
C     -3.02985    -5.71902     2.28728
O     -3.09874    -3.36115     1.89072
O     -1.78393    -4.61841     0.60098
H     -1.60442    -3.75522     0.14955
H     -2.62466    -5.68063     3.29629
H     -4.11154    -5.76695     2.37223
H     -2.64064    -6.58367     1.76323
C      3.13429     3.19211     1.24142
C      4.02567     2.72629     2.34877
O      3.47049     3.85258     0.29383
O      1.85281     2.75621     1.39359
H      1.27488     3.22533     0.76865
H      4.99266     3.21167     2.26420
H      3.56947     2.94641     3.31275
H      4.14445     1.64624     2.27679
C     -1.56292    -0.24578     3.43062
C     -0.54221     0.84859     3.53598
O     -2.70053    -0.17664     3.81650
O     -1.05824    -1.35952     2.85130
H     -1.77472    -2.00788     2.78033
H     -0.10385     1.03763     2.56115
H     -1.00904     1.75866     3.89760
H      0.26080     0.54514     4.20518
C      0.92881    -2.42979    -3.47796
C     -0.17553    -3.34304    -3.91450
O      0.89211    -1.21788    -3.63478
O      1.91925    -3.04991    -2.87515
H      2.63034    -2.40109    -2.64218
H     -0.80833    -2.83767    -4.63559
H      0.23521    -4.26074    -4.32450
H     -0.76531    -3.59704    -3.03584
