 40
-1146.2773626798319
C      1.13590    -2.66387    -2.98484
C      1.25084    -4.09292    -3.42361
O      0.08755    -2.05516    -2.92230
O      2.30628    -2.12913    -2.65944
H      2.16339    -1.21512    -2.36139
H      0.59585    -4.25913    -4.27362
H      2.27961    -4.33330    -3.66565
H      0.90810    -4.73215    -2.61207
C      0.91695    -0.11611     1.35383
C      0.75663    -0.94456     2.58317
O      0.33676     0.94043     1.13821
O      1.76047    -0.63459     0.47931
H      1.79451    -0.07577    -0.32070
H      0.28401    -1.88161     2.29736
H      1.73785    -1.16589     3.00027
H      0.13664    -0.41665     3.29881
C      1.11433     1.63255    -2.24085
C      1.24122     2.36043    -3.54246
O      1.77617     0.63427    -1.98391
O      0.25779     2.17005    -1.40575
H      0.11310     1.59400    -0.62645
H      1.20542     1.63634    -4.35040
H      0.45504     3.09870    -3.64654
H      2.21415     2.84501    -3.57110
C     -1.76088    -1.03059    -0.07045
C     -2.88233    -0.29342     0.60114
O     -1.29198    -2.06472     0.33730
O     -1.28565    -0.39910    -1.16181
H     -0.76032    -1.03147    -1.69560
H     -2.49572     0.15510     1.51678
H     -3.29657     0.48340    -0.03275
H     -3.65120    -1.00556     0.89011
C     -1.62168     2.01624     3.95305
C     -2.19994     2.98303     4.95015
O     -1.93087     0.85094     3.88496
O     -0.71709     2.59246     3.15255
H     -0.37543     1.93609     2.51946
H     -1.91436     2.66653     5.95152
H     -1.84405     3.98991     4.76219
H     -3.28511     2.94301     4.89310
