 48
-1375.5356806552984
C      0.71781     0.55023     2.63976
C     -0.69820     0.99503     2.86007
O      1.54454     0.40764     3.50450
O      0.96565     0.32364     1.33794
H      1.89974     0.06928     1.22311
H     -0.90623     1.04545     3.92472
H     -0.83635     1.97494     2.40886
H     -1.38189     0.30492     2.37164
C      5.33222    -0.56285    -2.40206
C      5.75551    -0.27638    -3.81029
O      5.94358    -1.33297    -1.67831
O      4.25216     0.09202    -2.02426
H      4.01870    -0.12860    -1.09291
H      5.90539    -1.21675    -4.33322
H      5.01430     0.33269    -4.31428
H      6.71215     0.24013    -3.78672
C     -2.02738    -0.15336    -1.40766
C     -0.72273     0.49510    -1.70485
O     -2.52704    -0.14731    -0.28080
O     -2.61375    -0.72997    -2.42453
H     -3.47614    -1.15057    -2.15385
H     -0.85660     1.57187    -1.60925
H     -0.00271     0.19425    -0.95101
H     -0.38729     0.23163    -2.70239
C     -2.73359     3.31676     0.43569
C     -3.22949     4.65984     0.89715
O     -1.68420     3.12332    -0.12791
O     -3.59853     2.33899     0.74441
H     -3.24410     1.49879     0.41236
H     -2.53612     5.43296     0.58642
H     -4.21921     4.85196     0.48819
H     -3.31665     4.65568     1.98277
C      4.28417    -1.21136     1.28280
C      3.97351    -1.43045     2.72514
O      3.58150    -0.51881     0.54751
O      5.36974    -1.81053     0.86792
H      5.55698    -1.62139    -0.09332
H      4.63917    -2.17598     3.14575
H      4.07487    -0.48531     3.25215
H      2.93335    -1.72433     2.82662
C     -5.35018    -1.97109    -0.57529
C     -6.63198    -2.68490    -0.26496
O     -4.92059    -1.86795    -1.71350
O     -4.74210    -1.47641     0.48442
H     -3.92315    -0.99469     0.22268
H     -6.55855    -3.70976    -0.61944
H     -6.82832    -2.66373     0.80045
H     -7.44142    -2.20847    -0.81197
