 56
-1604.8112415493222
C      2.96655     2.01448    -0.95264
C      2.20449     3.24415    -1.34301
O      3.73494     1.94220    -0.02418
O      2.69053     0.96754    -1.74754
H      3.24674     0.21557    -1.48058
H      2.59740     4.09945    -0.80284
H      2.27251     3.40905    -2.41619
H      1.15473     3.10611    -1.09046
C     -1.38508    -0.41043    -1.83681
C     -0.21786    -0.24258    -2.75005
O     -1.39999    -1.21556    -0.91378
O     -2.38519     0.39725    -2.09366
H     -3.14768     0.22398    -1.48422
H      0.39819     0.56137    -2.35226
H      0.36302    -1.15653    -2.76557
H     -0.55023     0.03409    -3.74835
C     -0.05957     0.94711     1.68153
C      1.21070     0.24505     2.04466
O     -1.06438     0.88519     2.36685
O     -0.00363     1.62965     0.55059
H     -5.17750     2.67726    -0.06075
H      1.04003    -0.82908     2.04594
H      2.00024     0.49857     1.34740
H      1.50073     0.53772     3.05199
C      1.57968    -3.31785    -0.34351
C      0.31530    -4.08988    -0.52296
O      2.12569    -3.17261     0.73821
O      2.04544    -2.78183    -1.46024
H      2.87494    -2.27737    -1.28702
H      0.32606    -4.61065    -1.47532
H      0.18601    -4.77916     0.30359
H     -0.51354    -3.38340    -0.52699
C     -4.40093    -0.80201     0.49743
C     -5.57714    -0.97803     1.40444
O     -4.42944    -0.07674    -0.48675
O     -3.33209    -1.45984     0.87904
H     -2.59633    -1.35726     0.22477
H     -5.67344    -2.01670     1.70780
H     -5.40030    -0.37868     2.29650
H     -6.47863    -0.63294     0.91002
C     -3.33914     2.73523     0.94568
C     -4.62467     3.38868     0.55127
O     -2.28717     2.93608     0.36059
O     -3.45302     1.89835     1.95733
H     -2.56234     1.51367     2.16275
H     -0.85304     2.12931     0.42149
H     -5.21853     3.63193     1.42787
H     -4.41528     4.27679    -0.03488
C      4.72780    -1.12378     0.21199
C      5.95165    -0.30556     0.44813
O      4.23208    -1.27282    -0.90530
O      4.20505    -1.65692     1.28376
H      3.43154    -2.24476     1.06147
H      5.64711     0.74022     0.42961
H      6.38427    -0.54489     1.41266
H      6.65934    -0.46912    -0.35898
