 64
-1834.0607310934522
C      0.49654     0.85139    -2.12598
C      1.89518     0.69152    -1.62574
O     -0.00987     1.93644    -2.36180
O     -0.14889    -0.28700    -2.29043
H     -1.08770    -0.11411    -2.53159
H      1.92192     0.94228    -0.56946
H      2.21669    -0.33149    -1.76998
H      2.55284     1.38290    -2.14182
C      3.98794     2.47748     1.69508
C      3.83129     3.76794     2.42754
O      3.28953     1.48785     1.93265
O      4.92366     2.47251     0.78908
H      4.99194     1.58037     0.34881
H      4.64820     4.43498     2.17819
H      2.88013     4.20663     2.13386
H      3.79633     3.57436     3.49673
C      0.89619    -2.92065    -0.42731
C     -0.45800    -3.52044    -0.64296
O      1.84803    -3.07348    -1.15502
O      0.95376    -2.16603     0.68152
H      1.85691    -1.82613     0.77533
H     -1.04098    -2.83020    -1.24918
H     -0.35646    -4.45474    -1.18947
H     -0.95914    -3.66616     0.30867
C      4.52444    -0.90830    -0.00035
C      4.83770    -2.23838    -0.58652
O      5.06346     0.12454    -0.35172
O      3.58987    -0.92447     0.95166
H      3.49255    -0.02171     1.35237
H      5.00632    -2.96091     0.20849
H      3.97350    -2.58775    -1.15286
H      5.70572    -2.16183    -1.23204
C     -3.23309     1.41835    -2.69007
C     -4.71779     1.58777    -2.66629
O     -2.70974     0.31397    -2.82591
O     -2.55005     2.52134    -2.54466
H     -1.57058     2.33004    -2.51566
H     -4.98475     2.63867    -2.66912
H     -5.14781     1.07660    -3.52335
H     -5.09634     1.10201    -1.76829
C     -2.27489    -1.39669     2.45645
C     -1.18386    -1.19661     3.46507
O     -2.69242    -2.47558     2.10632
O     -2.73027    -0.23528     1.96730
H     -3.42029    -0.41231     1.29618
H     -0.65028    -2.13132     3.59923
H     -0.50711    -0.41969     3.12610
H     -1.62178    -0.88416     4.41312
C      0.19870     2.64289     1.23656
C     -1.27085     2.86483     1.05161
O      1.05363     3.43417     0.92536
O      0.47808     1.44645     1.78017
H      1.44122     1.38282     1.89522
H     -1.59977     3.62776     1.75780
H     -1.43917     3.24430     0.04761
H     -1.82610     1.94833     1.21550
C     -4.40950    -1.93036    -0.55353
C     -4.97304    -3.19234     0.01117
O     -4.51963    -0.83530    -0.03296
O     -3.75609    -2.10842    -1.69776
H     -3.44758    -1.24875    -2.03156
H     -4.37601    -3.46407     0.88044
H     -5.99117    -3.01153     0.34715
H     -4.94108    -3.98392    -0.72890
