 48
-1375.547289832667
C     -1.36146    -0.92950     1.85995
C     -2.57285    -0.07129     2.03869
O     -1.33312    -2.13107     2.04074
O     -0.28982    -0.24379     1.46494
H      0.47129    -0.84748     1.40264
H     -2.99454     0.12818     1.05446
H     -3.31022    -0.58882     2.64550
H     -2.29686     0.88050     2.48160
C      1.72784    -3.04360     0.36296
C      1.71826    -4.42278     0.93018
O      1.92550    -2.04557     1.05092
O      1.47373    -2.96549    -0.91802
H      1.61772    -2.03523    -1.24084
H      2.40081    -4.47533     1.77209
H      0.71050    -4.62830     1.28593
H      1.97818    -5.15295     0.17135
C     -0.94743     1.94429    -1.10068
C     -0.93914     0.73359    -1.96600
O      0.04684     2.63921    -0.93203
O     -2.10400     2.19812    -0.52948
H     -2.06844     3.04583    -0.00973
H     -1.94533     0.39978    -2.18151
H     -0.38227     0.94480    -2.87358
H     -0.41065    -0.05563    -1.44211
C     -0.97678     5.06694     1.09807
C     -0.98340     6.28925     1.96961
O     -1.99607     4.42624     0.88168
O      0.19960     4.76152     0.60267
H      0.14876     3.94796     0.02734
H     -1.66550     7.02091     1.54351
H     -1.36681     6.02007     2.95062
H      0.01514     6.70231     2.05032
C      2.79830     0.26152    -1.14399
C      3.38707     1.45017    -1.83257
O      2.04913    -0.52910    -1.69902
O      3.13448     0.17228     0.12585
H      2.71847    -0.62355     0.52564
H      4.41393     1.60212    -1.51410
H      3.31784     1.32394    -2.90730
H      2.80291     2.32045    -1.53592
C     -1.84686    -3.17325    -1.07479
C     -1.73069    -3.97863    -2.33954
O     -2.15381    -2.00603    -1.03463
O     -1.54987    -3.90016     0.00874
H     -1.54689    -3.30979     0.79160
H     -2.33659    -3.52123    -3.11628
H     -0.69053    -3.97903    -2.66269
H     -2.03830    -5.00724    -2.16792
