 56
-1604.7990922674915
C     -2.73092     0.95855    -1.14815
C     -4.07267     0.40201    -1.52651
O     -1.70848     0.74327    -1.75407
O     -2.79464     1.69690    -0.03443
H     -1.91028     2.05852     0.14252
H     -4.25400    -0.49233    -0.93238
H     -4.85761     1.12253    -1.31231
H     -4.06860     0.12832    -2.57650
C      2.73513    -1.39252    -1.05184
C      2.65410    -2.02996    -2.40585
O      3.11446    -1.94869    -0.05053
O      2.33116    -0.10599    -1.06472
H      2.45867     0.26138    -0.17249
H      3.28206    -2.91542    -2.41652
H      1.62474    -2.31689    -2.60591
H      2.96733    -1.32897    -3.17594
C      0.90104     2.78079    -0.81713
C      0.91678     2.55448    -2.28725
O     -0.09235     2.63546    -0.10869
O      2.05036     3.18797    -0.32508
H      0.80146     3.48072     5.02965
H      1.62639     1.76018    -2.49985
H     -0.07109     2.26590    -2.62199
H      1.25584     3.46299    -2.78122
C     -2.74338    -4.87205    -2.37162
C     -3.37818    -5.98878    -3.15104
O     -1.59230    -4.51555    -2.57903
O     -3.52646    -4.33045    -1.46781
H     -3.05501    -3.60360    -0.97729
H     -4.40839    -6.12785    -2.84429
H     -3.32223    -5.75589    -4.21139
H     -2.80733    -6.89960    -2.98672
C     -1.09835    -2.10715    -0.30579
C     -0.44104    -1.06626     0.53543
O     -2.26977    -2.42685    -0.16652
O     -0.31096    -2.64689    -1.21074
H     -0.78349    -3.34869    -1.73474
H     -1.13874    -0.72313     1.28799
H      0.45478    -1.47838     0.99031
H     -0.13909    -0.24051    -0.09682
C      0.52153     3.82800     2.97125
C      0.27427     4.19553     4.40125
O      1.65703     3.68217     2.52699
O     -0.55490     3.66797     2.24349
H     -0.31459     3.33624     1.34060
H      2.06540     3.07467     0.64511
H      0.69621     5.18032     4.58987
H     -0.78637     4.19533     4.62571
C      2.72851     0.62975     2.63853
C      3.12933    -0.75507     3.03396
O      2.45665     0.97853     1.50439
O      2.67919     1.46836     3.66784
H      2.41251     2.34993     3.33302
H      3.25206    -1.37657     2.15611
H      4.05511    -0.71653     3.60465
H      2.36017    -1.17810     3.67938
