 32
-917.0159509645448
C      1.67910    -0.60114    -2.75797
C      3.07764    -1.08221    -3.03387
O      1.13449     0.29784    -3.35027
O      1.10685    -1.28427    -1.75779
H      0.19287    -0.96591    -1.64262
H      3.06344    -2.14002    -3.28938
H      3.50471    -0.50618    -3.84655
H      3.68693    -0.96777    -2.13869
C     -1.70850     0.83305    -1.93213
C     -1.96450     1.12621    -3.37211
O     -1.50557    -0.30693    -1.51137
O     -1.71228     1.87638    -1.14833
H     -1.59845     1.62079    -0.18712
H     -1.02715     1.00046    -3.91056
H     -2.67644     0.40400    -3.76256
H     -2.32919     2.14001    -3.48644
C      1.84439    -0.15778     2.90698
C      1.73802    -0.22750     1.41560
O      0.94140    -0.36878     3.67897
O      3.07619     0.17917     3.33332
H      3.03588     0.20529     4.29748
H      1.16935     0.63237     1.06981
H      2.71144    -0.23455     0.93459
H      1.18689    -1.12261     1.15110
C     -1.80747     0.11860     1.84308
C     -2.22910    -0.10413     3.25634
O     -1.52143     1.21703     1.38972
O     -1.75766    -0.98422     1.11392
H     -1.61546    -0.76251     0.16358
H     -2.69184     0.79703     3.64592
H     -2.90279    -0.95300     3.31407
H     -1.33837    -0.32089     3.84413
