 40
-1146.2815626103315
C      0.57627    -2.35633    -0.83252
C     -0.33955    -3.41401    -1.35553
O      1.22424    -2.48336     0.19649
O      0.61237    -1.26871    -1.57541
H      1.24850    -0.61322    -1.20446
H     -0.32328    -3.42262    -2.44088
H     -0.05220    -4.37720    -0.94979
H     -1.34854    -3.17442    -1.02711
C      2.78038     0.46943     0.61031
C      3.51102     1.59642     1.26392
O      2.41423     0.50504    -0.56171
O      2.55073    -0.55374     1.39726
H      2.07519    -1.28657     0.91571
H      3.76326     1.34050     2.28709
H      4.40331     1.82191     0.68621
H      2.89134     2.48833     1.22669
C      3.92401     3.56846    -2.00276
C      4.43621     4.43298    -3.12024
O      3.79634     3.92216    -0.85677
O      3.62773     2.33399    -2.43585
H      3.27248     1.81356    -1.69486
H      3.68004     4.51266    -3.89889
H      4.67855     5.41634    -2.73435
H      5.31826     3.97586    -3.56460
C     -5.20836    -0.59656     0.16799
C     -6.46162    -0.42974    -0.64022
O     -4.47976    -1.57204     0.03751
O     -4.97291     0.38208     1.00942
H     -4.13144     0.22136     1.51721
H     -6.19873    -0.39895    -1.69479
H     -7.09748    -1.29817    -0.48849
H     -6.97876     0.47792    -0.35248
C     -1.98974    -1.02093     2.17844
C     -0.72428    -1.19694     2.95830
O     -2.73709    -0.07155     2.34776
O     -2.21355    -1.98268     1.30679
H     -3.08152    -1.83823     0.83829
H     -0.21368    -0.24173     3.03099
H     -0.98165    -1.52133     3.96535
H     -0.08766    -1.93263     2.48125
