 72
-2063.32561400062
C      3.85813     0.37483    -1.67070
C      2.61139     0.94114    -2.25899
O      3.97174     0.16930    -0.45971
O      4.80666     0.11347    -2.52408
H      5.60367    -0.29646    -2.08428
H      2.72143     1.09931    -3.32549
H      1.79386     0.25141    -2.06592
H      2.36486     1.86816    -1.75098
C     -1.51050    -0.63877    -2.88660
C     -1.27332    -2.04320    -3.33142
O     -0.81642     0.30851    -3.21458
O     -2.56532    -0.51445    -2.09513
H     -2.64454     0.41062    -1.76364
H     -2.21514    -2.50007    -3.61994
H     -0.55923    -2.06063    -4.14790
H     -0.87584    -2.59938    -2.48370
C      0.53796     3.25002     2.74763
C      1.92213     3.25436     3.33413
O      0.19961     3.90928     1.79583
O     -0.28089     2.41081     3.40141
H     -1.15465     2.41584     2.97081
H      1.87731     3.12866     4.41300
H      2.48277     2.42173     2.91233
H      2.42168     4.18197     3.07241
C     -4.17865    -2.46692    -0.14768
C     -5.41840    -1.79450    -0.64500
O     -3.67650    -2.20262     0.93475
O     -3.68942    -3.36395    -0.97314
H     -2.81130    -3.68772    -0.63951
H     -5.64806    -0.95133    -0.00630
H     -5.26329    -1.47257    -1.67034
H     -6.23964    -2.51041    -0.63212
C     -3.76648     1.59489     2.11764
C     -4.30218     0.69555     3.18924
O     -2.89770     2.42496     2.27659
O     -4.36150     1.38589     0.94561
H     -3.88563     1.87672     0.25336
H     -3.99597    -0.32903     2.98501
H     -3.93060     1.00154     4.16122
H     -5.38900     0.72264     3.17181
C     -0.75445    -3.72471     0.90663
C      0.65675    -4.09894     1.22900
O     -1.30653    -4.05383    -0.13219
O     -1.33840    -2.99698     1.83639
H     -2.24709    -2.72825     1.54435
H      0.92225    -5.01974     0.72024
H      1.30051    -3.29866     0.86661
H      0.78517    -4.18874     2.30265
C      7.05724    -1.22146    -0.21392
C      8.28958    -1.85693     0.35387
O      6.93419    -0.99226    -1.40742
O      6.13396    -0.94187     0.68358
H      5.34190    -0.53201     0.25860
H      8.38814    -2.85803    -0.05876
H      9.15909    -1.28772     0.03673
H      8.23109    -1.89941     1.43497
C     -1.67978     2.79720    -1.21686
C     -1.72876     4.15469    -0.59992
O     -2.63670     2.02614    -1.19567
O     -0.54080     2.48394    -1.78193
H     -0.62660     1.64381    -2.31027
H     -2.33073     4.80111    -1.23901
H     -2.20715     4.07431     0.37213
H     -0.73144     4.56247    -0.48990
C      0.46964     0.07019     0.30074
C     -0.81314     0.48418     0.94277
O      0.56269    -0.85226    -0.47295
O      1.50940     0.81635     0.67568
H      2.33583     0.49421     0.25995
H     -1.63407     0.03996     0.39294
H     -0.82491     0.13642     1.97643
H     -0.91791     1.55815     0.94993
