 48
-1375.5440764003763
C      0.31018    -1.16567     1.85304
C      0.87774    -1.84036     3.05737
O     -0.54012    -1.64758     1.13517
O      0.85924     0.01439     1.61323
H      0.45247     0.41709     0.81835
H      1.89762    -2.14791     2.83195
H      0.91317    -1.15185     3.89789
H      0.28780    -2.71556     3.30738
C      1.73868    -2.25659    -1.09745
C      0.80860    -3.19529    -1.78350
O      1.88408    -1.08677    -1.45436
O      2.38755    -2.76505    -0.08118
H      2.99835    -2.10138     0.33714
H      1.18726    -4.21260    -1.74104
H     -0.16807    -3.15833    -1.29487
H      0.67243    -2.87154    -2.80949
C     -0.77024     1.01429    -1.72067
C     -1.90232     1.84514    -2.22033
O     -0.17244     1.23461    -0.67767
O     -0.47096    -0.00386    -2.49903
H      0.33379    -0.44273    -2.15672
H     -1.70260     2.89060    -2.00836
H     -2.06385     1.68447    -3.28109
H     -2.79354     1.57567    -1.65862
C     -2.28507     3.63205     1.06404
C     -2.59058     4.70224     2.07690
O     -3.11059     3.05391     0.40202
O     -0.96504     3.40287     0.97642
H     -0.80007     2.67119     0.35466
H     -2.22232     4.40044     3.05570
H     -2.08013     5.62408     1.80398
H     -3.66133     4.86661     2.11730
C      3.93161     0.19015     0.87490
C      4.32104     1.24178     1.86476
O      3.92826    -1.00439     1.12838
O      3.57943     0.68183    -0.29701
H      3.11311    -0.00513    -0.81896
H      4.87932     0.80150     2.68331
H      4.89623     2.02118     1.37337
H      3.40683     1.69135     2.25064
C     -2.97336    -1.86447    -1.17978
C     -4.08900    -1.43779    -2.09776
O     -2.34955    -2.88928    -1.29989
O     -2.73294    -0.95311    -0.22882
H     -1.96408    -1.24519     0.30279
H     -4.92848    -1.04352    -1.52934
H     -3.72938    -0.64662    -2.75378
H     -4.40620    -2.27843    -2.70613
