 72
-2063.3268477481197
C     -1.42858     0.13019     1.57385
C     -0.96664     1.55274     1.51666
O     -2.57269    -0.22996     1.44151
O     -0.40925    -0.72293     1.77824
H     -0.76665    -1.62328     1.87307
H     -0.91036     1.87027     0.48096
H     -1.68077     2.18003     2.03924
H      0.00668     1.63820     1.97789
C      2.15785     0.57790     0.34914
C      2.31152    -0.86589    -0.00603
O      1.59718     1.39776    -0.35376
O      2.69995     0.90098     1.51535
H      2.52062     1.83684     1.71413
H      3.32854    -1.19839     0.18442
H      1.63831    -1.45184     0.61255
H      2.05167    -1.01068    -1.04816
C      0.94231     4.18814     1.92881
C      0.90027     4.54036     0.48661
O      1.85422     3.50931     2.40640
O     -0.04094     4.65564     2.64520
H      0.03994     4.36969     3.59814
H      1.12058     3.66025    -0.10415
H     -0.07081     4.93354     0.21132
H      1.67280     5.28462     0.29557
C     -2.72287    -3.53814     1.65394
C     -3.83870    -2.97193     2.46444
O     -1.53752    -3.29263     1.87113
O     -3.10670    -4.32609     0.68182
H     -2.32976    -4.70878     0.19737
H     -3.67360    -3.21526     3.51207
H     -3.81975    -1.88872     2.36531
H     -4.78499    -3.37358     2.12036
C     -0.72788     2.31107    -2.52330
C     -1.56120     2.44357    -3.76617
O     -0.94858     2.89546    -1.49025
O      0.28571     1.45610    -2.68853
H      0.77667     1.39398    -1.84356
H     -0.96318     2.21232    -4.64193
H     -2.38701     1.73560    -3.71299
H     -1.97402     3.44712    -3.82890
C      0.16246    -4.88696    -0.55959
C      1.22639    -5.28170    -1.53355
O     -1.00576    -5.21453    -0.67766
O      0.59917    -4.12160     0.42716
H     -0.14822    -3.87162     1.01586
H      2.17650    -5.40218    -1.02240
H      0.93308    -6.19242    -2.04378
H      1.32515    -4.48148    -2.26599
C      1.43063    -0.25143    -5.37680
C      2.40869     0.56142    -6.17418
O      0.25261    -0.32534    -5.68964
O      1.96034    -0.86623    -4.33985
H      1.26054    -1.31421    -3.80354
H      2.08504     1.59986    -6.17178
H      3.40413     0.47719    -5.75425
H      2.39823     0.21845    -7.20570
C     -1.12670    -1.63267    -2.94709
C     -2.09492    -1.89041    -1.83595
O      0.04646    -1.96839    -2.87673
O     -1.65538    -1.03135    -3.98392
H     -0.96451    -0.83061    -4.66334
H     -2.81901    -1.08843    -1.75322
H     -2.62136    -2.82507    -2.02363
H     -1.53320    -1.98849    -0.91463
C      1.04595     3.20090     5.63532
C      1.05537     2.79951     7.08052
O      0.13405     3.85468     5.15044
O      2.09517     2.78978     4.95413
H      2.02086     3.05205     4.00492
H      1.96458     2.25912     7.31558
H      0.96756     3.69120     7.69571
H      0.18286     2.18187     7.27812
