 72
-2063.3214673566054
C      1.03190    -4.94386     0.23763
C      0.87923    -6.03654    -0.76536
O      1.97670    -4.15221     0.21891
O      0.08216    -4.88319     1.13353
H      0.24221    -4.16209     1.80438
H      0.56866    -5.57935    -1.70381
H      1.84126    -6.51600    -0.92446
H      0.13351    -6.74987    -0.43342
C      0.53441     2.37483    -4.12110
C     -0.26464     2.93472    -5.25928
O      0.06061     2.17599    -3.00567
O      1.77558     2.11346    -4.42719
H      2.27574     1.76485    -3.63633
H      0.16673     3.88508    -5.56801
H     -0.20923     2.25686    -6.10814
H     -1.29525     3.07648    -4.95940
C     -2.96134     2.17358     3.53390
C     -3.45444     3.30451     4.38895
O     -3.71571     1.39075     2.98017
O     -1.64706     2.12137     3.42585
H     -1.37990     1.35897     2.84510
H     -2.72102     3.55002     5.15061
H     -3.60112     4.17529     3.75247
H     -4.40569     3.03553     4.83480
C      1.39144    -2.11644     2.83310
C      1.45155    -0.98184     3.79724
O      0.54479    -2.99528     2.88890
O      2.32919    -2.08967     1.89953
H      2.25508    -2.87737     1.31171
H      2.43257    -0.52519     3.79125
H      0.73325    -0.23044     3.48188
H      1.17684    -1.33389     4.78690
C     -1.72356    -0.47526     1.09018
C     -1.18699    -1.34519     0.00995
O     -0.99815     0.09953     1.88997
O     -3.03114    -0.37372     1.11028
H     -3.32061     0.25087     1.82408
H     -0.72797    -2.21842     0.46660
H     -1.96453    -1.63866    -0.68153
H     -0.41178    -0.79010    -0.50438
C      0.66200    -2.36729    -2.49734
C      0.23078    -1.21347    -3.34512
O      0.26264    -3.49832    -2.61050
O      1.56665    -2.00572    -1.56306
H      1.81309    -2.80055    -1.05695
H      1.07715    -0.56815    -3.55326
H     -0.19887    -1.58131    -4.26976
H     -0.52911    -0.62922    -2.83132
C      2.59545     1.00159    -1.17994
C      3.37530     0.33575    -0.10737
O      2.99283     1.14865    -2.31935
O      1.39146     1.44548    -0.80371
H      0.88611     1.74720    -1.59471
H      2.97774    -0.66464     0.04121
H      4.42089     0.27470    -0.39383
H      3.26169     0.88161     0.82366
C     -3.21902     1.08081    -2.35604
C     -4.63726     1.07424    -1.86663
O     -2.51664     0.10181    -2.44586
O     -2.79483     2.30911    -2.68605
H     -1.85062     2.24109    -2.90969
H     -4.62928     1.12819    -0.77933
H     -5.18365     1.92620    -2.26118
H     -5.11330     0.14160    -2.15313
C      1.74837     2.84242     2.59772
C      1.57295     3.83099     3.71233
O      2.37578     1.81328     2.68119
O      1.10669     3.22038     1.48558
H      1.21495     2.53759     0.80374
H      1.52634     4.84080     3.31506
H      0.63602     3.61424     4.22302
H      2.39043     3.72760     4.41952
