 40
-1146.282031715146
C     -0.64259    -2.38623    -2.54054
C     -1.36007    -3.62949    -2.94491
O     -1.17255    -1.29606    -2.40828
O      0.65222    -2.57546    -2.32574
H      1.05178    -1.73460    -2.04470
H     -1.91418    -3.99602    -2.08392
H     -2.07385    -3.39792    -3.73077
H     -0.64666    -4.37815    -3.26810
C      2.09774     0.43098     1.82380
C      2.28101     0.17653     3.28491
O      2.21958     1.53010     1.30524
O      1.75871    -0.64824     1.13700
H      1.70889    -0.44091     0.18079
H      2.72675    -0.80213     3.43488
H      2.89180     0.95899     3.72188
H      1.29551     0.18852     3.74628
C      1.46688     1.11591    -1.94080
C      0.99303     1.38616    -3.33416
O      1.75948    -0.01328    -1.55478
O      1.52535     2.16780    -1.16698
H      1.80299     1.91717    -0.24432
H      0.05875     0.84825    -3.48360
H      0.84838     2.44987    -3.48653
H      1.72223     0.99528    -4.03955
C     -2.11995    -1.66510     0.68026
C     -2.49335    -1.46877     2.11646
O     -2.19439    -2.70878     0.08591
O     -1.66860    -0.52688     0.10462
H     -1.48929    -0.70762    -0.84545
H     -2.72095    -2.43024     2.56538
H     -1.67990    -0.97797     2.64493
H     -3.36727    -0.82135     2.17770
C     -0.80986     2.32884     2.18532
C     -0.46979     3.75254     2.51645
O     -0.66126     1.39785     2.94160
O     -1.26645     2.19434     0.93596
H     -1.45537     1.25569     0.76845
H     -0.48572     3.88854     3.59240
H      0.53427     3.95855     2.14792
H     -1.16287     4.43047     2.02694
