 72
-2063.3349676897014
C      4.50149    -2.43387     1.35683
C      5.70592    -2.87469     2.13393
O      3.98524    -3.14334     0.50652
O      4.05897    -1.23969     1.67933
H      3.24737    -1.02418     1.15508
H      6.02640    -2.09310     2.81280
H      5.44614    -3.77312     2.69107
H      6.50404    -3.13597     1.44310
C     -4.05198     2.57727    -0.11162
C     -5.46044     2.53944    -0.60495
O     -3.10076     2.13614    -0.75790
O     -3.90623     3.11820     1.06902
H     -2.95070     3.13581     1.34441
H     -5.75378     1.49790    -0.71808
H     -6.11391     3.04999     0.09298
H     -5.50350     3.00514    -1.58733
C     -0.42870     2.52076     1.25339
C      0.94760     2.46059     1.82348
O     -1.37878     3.03642     1.81258
O     -0.53350     1.94161     0.06433
H     -1.45280     2.02290    -0.28227
H      1.17573     1.42744     2.08011
H      1.66186     2.78491     1.07339
H      1.00310     3.08204     2.71249
C     -1.65093    -1.20131     2.15606
C     -2.76330    -0.22726     2.37042
O     -1.76817    -2.20388     1.47211
O     -0.52260    -0.85245     2.73935
H      0.13812    -1.58134     2.65001
H     -2.62970     0.29924     3.30800
H     -2.74095     0.49971     1.56482
H     -3.72254    -0.72824     2.32518
C     -3.87058    -1.13580    -1.25796
C     -3.81670    -2.61676    -1.48782
O     -4.70584    -0.57295    -0.59120
O     -2.86318    -0.48676    -1.85696
H     -2.94328     0.45006    -1.62161
H     -3.02473    -3.04142    -0.87170
H     -4.76474    -3.06134    -1.20501
H     -3.58624    -2.83200    -2.52854
C      0.76508    -4.11568     2.05227
C      1.74498    -5.24201     2.08247
O      0.99170    -3.02569     2.54825
O     -0.34912    -4.40845     1.42119
H     -0.94506    -3.62205     1.42014
H      1.23305    -6.19503     1.99867
H      2.41923    -5.11995     1.23634
H      2.33161    -5.19505     2.99531
C      3.27165     1.83196    -1.84674
C      4.50522     1.14159    -1.35030
O      2.63887     1.45163    -2.81808
O      2.92036     2.87758    -1.12089
H      2.15769     3.34604    -1.54896
H      4.32343     0.78376    -0.34109
H      4.74588     0.30951    -2.00080
H      5.33298     1.84692    -1.31385
C     -0.02706     3.38332    -2.86913
C     -1.39834     3.93177    -3.11083
O      0.86838     4.01673    -2.33492
O      0.11182     2.14257    -3.29378
H      1.04720     1.85328    -3.15887
H     -1.52724     4.85896    -2.56444
H     -1.52610     4.11327    -4.17701
H     -2.13458     3.19868    -2.80112
C      1.39817    -1.47499    -0.62918
C      0.26202    -0.98572    -1.45585
O      2.00121    -0.74510     0.14106
O      1.69786    -2.74422    -0.79023
H      2.55451    -2.94005    -0.33695
H     -0.54130    -1.71137    -1.50662
H     -0.09768    -0.06291    -1.02552
H      0.61875    -0.78448    -2.46506
