 56
-1604.7998198668822
C      0.03989     0.09695    -2.13856
C      1.15319    -0.67966    -2.75946
O     -1.14146    -0.14492    -2.30932
O      0.44937     1.07642    -1.34506
H     -0.34517     1.55324    -0.99868
H      1.91042    -0.01277    -3.16296
H      1.63910    -1.27647    -1.99202
H      0.75979    -1.32290    -3.53701
C     -0.25972    -1.98345     0.64196
C     -1.14854    -2.98522    -0.00897
O      0.94943    -2.07047     0.71933
O     -0.91692    -0.92839     1.12886
H     -0.26866    -0.30838     1.50198
H     -1.23949    -2.74685    -1.06776
H     -0.70183    -3.97213     0.05757
H     -2.13422    -2.97838     0.44343
C      1.47088     1.89345     1.51655
C      2.72399     1.40826     0.88576
O      0.72075     1.18419     2.18598
O      1.21338     3.16422     1.30785
H     -1.77684     5.14881     4.87344
H      2.94941     0.40968     1.23207
H      2.59493     1.38053    -0.19109
H      3.53617     2.09504     1.11182
C     -2.54484     1.61204     0.33166
C     -3.50715     0.56888    -0.12803
O     -1.71821     2.15987    -0.37223
O     -2.66119     1.91590     1.61776
H     -1.98390     2.57758     1.83124
H     -3.23450    -0.37718     0.33679
H     -4.51485     0.83229     0.18979
H     -3.45099     0.46629    -1.20490
C     -2.03059    -3.03891    -4.01854
C     -2.69178    -3.94506    -5.02187
O     -1.26311    -3.42895    -3.17069
O     -2.38558    -1.76066    -4.17688
H     -1.93386    -1.20733    -3.50917
H     -3.25993    -4.70433    -4.48878
H     -3.33878    -3.38007    -5.68330
H     -1.91913    -4.45717    -5.59144
C     -0.84621     3.42145     4.05132
C     -1.37689     4.20267     5.21681
O     -0.94470     3.79831     2.88560
O     -0.26481     2.29611     4.39015
H      0.08701     1.82913     3.58964
H      0.39220     3.42525     1.77948
H     -2.15541     3.62692     5.71206
H     -0.58264     4.36588     5.94008
C      4.12686    -2.10150    -0.60345
C      5.48296    -2.55936    -1.07018
O      3.65745    -1.01762    -0.85827
O      3.50170    -3.03375     0.12040
H      2.61876    -2.70104     0.37074
H      6.22439    -1.81119    -0.79852
H      5.73061    -3.52089    -0.63500
H      5.47536    -2.63147    -2.15658
