 72
-2063.3214457112676
C      3.90865    -2.80398     0.35089
C      5.21500    -2.37456    -0.22243
O      3.38879    -2.25518     1.32042
O      3.35160    -3.82593    -0.25518
H      2.48525    -4.04052     0.16569
H      5.20835    -1.29656    -0.35820
H      6.00157    -2.61149     0.49205
H      5.39534    -2.88736    -1.16006
C     -1.95778     3.93702     0.37922
C     -3.04722     3.26446     1.14024
O     -0.78796     3.93912     0.75715
O     -2.33404     4.52118    -0.72780
H     -1.55702     4.97197    -1.16394
H     -2.60898     2.51375     1.78796
H     -3.56445     4.01137     1.74140
H     -3.74984     2.81444     0.44936
C      0.91004     5.68508    -1.43744
C      2.02088     6.30407    -2.22657
O     -0.23719     5.61759    -1.85305
O      1.28058     5.22898    -0.25736
H      0.51307     4.79853     0.19087
H      2.98057     6.00597    -1.81937
H      1.93055     6.00973    -3.26735
H      1.92070     7.38582    -2.17255
C      0.60327    -3.89190     2.01192
C     -0.63192    -4.44281     2.63245
O      0.99450    -4.21010     0.89226
O      1.25889    -3.04352     2.76929
H      2.06449    -2.72583     2.30232
H     -1.26041    -3.62378     2.96657
H     -1.15348    -5.04528     1.90098
H     -0.35464    -5.04064     3.50017
C     -1.78239    -3.89835    -1.30074
C     -2.67921    -3.44608    -2.40681
O     -2.16363    -4.30381    -0.22621
O     -0.48161    -3.78316    -1.60726
H      0.03644    -4.03384    -0.82775
H     -2.36820    -3.89637    -3.34734
H     -3.70269    -3.71180    -2.16845
H     -2.59677    -2.36444    -2.50457
C     -2.52228     0.76885    -2.21700
C     -2.41881     1.89736    -3.20457
O     -1.88306    -0.25382    -2.30988
O     -3.36073     1.03100    -1.21922
H     -3.40559     0.24751    -0.61652
H     -2.84862     1.58194    -4.15487
H     -2.93875     2.77353    -2.83614
H     -1.36781     2.12507    -3.37176
C      3.73150     1.28308     0.94414
C      3.66203     2.76187     1.18667
O      4.32982     0.76715     0.03140
O      3.03803     0.58568     1.85561
H      3.18589    -0.35939     1.69726
H      2.77877     3.00553     1.76482
H      4.55065     3.07487     1.73398
H      3.64482     3.27676     0.23084
C      0.21982     0.57899    -0.15953
C      0.90458    -0.56986    -0.81536
O     -0.63442     0.49634     0.69845
O      0.62366     1.76857    -0.59657
H      0.15104     2.45865    -0.10762
H      0.32333    -0.88414    -1.68081
H      1.89807    -0.26951    -1.13392
H      0.96495    -1.39844    -0.11606
C     -3.13731    -1.69860     1.30238
C     -3.91732    -2.79117     1.95223
O     -3.55677    -1.03699     0.37097
O     -1.92818    -1.53578     1.81185
H     -1.47296    -0.79012     1.35942
H     -3.73347    -2.79880     3.02235
H     -4.97520    -2.67249     1.74088
H     -3.57438    -3.73722     1.53276
