 32
-917.0184090517232
C      1.56372    -2.36211     1.65300
C      2.67449    -3.36539     1.80476
O      1.67821    -1.17517     1.84069
O      0.41476    -2.94575     1.28660
H     -0.26853    -2.25525     1.18482
H      3.57612    -2.86566     2.14085
H      2.38476    -4.13397     2.51935
H      2.85848    -3.85897     0.85180
C     -1.49881    -0.13555     1.86447
C     -1.26626    -0.67090     3.24251
O     -1.43595    -0.84953     0.86536
O     -1.75622     1.14150     1.82021
H     -1.85347     1.47754     0.88065
H     -1.87871    -0.14136     3.96643
H     -1.47543    -1.73441     3.25051
H     -0.21451    -0.51898     3.47926
C      1.78168     1.28438    -1.97076
C      1.51421     0.87215    -0.55840
O      1.00345     1.84759    -2.70102
O      3.02090     0.95009    -2.38707
H      3.08978     1.24958    -3.30168
H      0.68187     1.45247    -0.18192
H      1.24915    -0.18177    -0.52719
H      2.38346     0.99362     0.07702
C     -2.00800     1.40547    -1.65724
C     -2.21377     2.00713    -3.00331
O     -1.94477     2.05432    -0.62429
O     -1.88733     0.09025    -1.67854
H     -1.76601    -0.25025    -0.76663
H     -2.83224     1.35166    -3.60858
H     -2.65957     2.99066    -2.90232
H     -1.23783     2.10176    -3.47638
