 48
-1375.5487278695252
C     -2.69531     1.17441     2.91158
C     -3.93397     0.50038     3.42203
O     -2.69338     2.24223     2.34436
O     -1.60464     0.43850     3.12158
H     -0.84620     0.87903     2.69229
H     -4.66832     1.24672     3.70856
H     -4.35234    -0.09781     2.61298
H     -3.70161    -0.15724     4.25503
C      1.84511    -1.65692     0.83775
C      0.95106    -1.51756     2.02403
O      2.49908    -0.72479     0.37216
O      1.87910    -2.86584     0.33560
H      2.53016    -2.93506    -0.41163
H     -0.07998    -1.64776     1.70286
H      1.17890    -2.29360     2.75264
H      1.06719    -0.53227     2.45481
C      0.36565     2.26561     0.66590
C     -0.48272     3.42594     0.25750
O      0.40806     1.78176     1.77879
O      1.10926     1.79078    -0.33425
H      1.66085     1.07473     0.01968
H     -1.00458     3.18218    -0.66296
H     -1.18932     3.65551     1.04543
H      0.15748     4.28653     0.06409
C     -3.63137     1.14373    -0.59537
C     -4.78853     1.86045     0.02151
O     -3.14297     0.12706    -0.12079
O     -3.17170     1.72369    -1.68253
H     -2.45111     1.17709    -2.09751
H     -5.43694     1.14656     0.51711
H     -4.38638     2.53201     0.77902
H     -5.33141     2.42979    -0.72679
C      4.56151    -2.29372    -1.79902
C      5.69663    -2.57120    -2.73831
O      3.60668    -3.04501    -1.67058
O      4.69035    -1.16182    -1.13503
H      3.90718    -1.00095    -0.55710
H      5.76721    -1.76751    -3.46786
H      6.63186    -2.59388    -2.18403
H      5.53213    -3.51731    -3.23869
C     -0.52149    -0.47900    -2.05897
C      0.76419    -1.02866    -2.57994
O     -1.24723     0.24994    -2.71163
O     -0.79229    -0.84352    -0.82181
H     -1.67078    -0.47841    -0.53644
H      0.82939    -2.09267    -2.37411
H      0.85663    -0.84166    -3.64331
H      1.58503    -0.54571    -2.05468
