 48
-1375.5394966658612
C      1.08595     0.68924     2.59831
C      1.97032    -0.10655     3.50201
O      1.27226     1.86269     2.32840
O      0.08586    -0.01373     2.08610
H     -0.50076     0.57028     1.56549
H      2.59323     0.56308     4.08470
H      1.36745    -0.74043     4.14638
H      2.59958    -0.74731     2.88715
C      3.53507    -4.48522    -0.27378
C      3.91058    -5.92485    -0.07349
O      2.88844    -4.11489    -1.24319
O      3.96098    -3.67713     0.67093
H      3.69366    -2.73794     0.48291
H      4.43517    -6.05314     0.86624
H      3.00953    -6.53228    -0.09567
H      4.53791    -6.24204    -0.90314
C     -1.01912     2.67901    -0.05341
C     -1.66340     3.39170    -1.18580
O     -1.47783     1.65011     0.45800
O      0.10662     3.21149     0.35109
H      0.50196     2.72508     1.12341
H     -1.54209     2.76435    -2.06871
H     -2.72669     3.50018    -0.98924
H     -1.18241     4.35183    -1.33600
C     -5.12777     2.43720     0.78463
C     -6.49862     2.50572     1.39333
O     -4.80908     2.98807    -0.24006
O     -4.28026     1.69111     1.51079
H     -3.41974     1.69028     1.06734
H     -7.22201     2.15435     0.66107
H     -6.55543     1.91326     2.29971
H     -6.73322     3.54683     1.60475
C      2.62134    -0.80643    -0.81653
C      2.27946     0.62726    -1.04638
O      3.24395    -1.18369     0.16599
O      2.16260    -1.62027    -1.74271
H      2.43506    -2.55865    -1.55896
H      2.88726     1.25840    -0.41183
H      2.38082     0.89856    -2.08980
H      1.23549     0.76409    -0.78994
C     -0.97423    -0.42410    -2.38622
C     -1.01962    -1.48185    -3.44687
O     -0.51932     0.68588    -2.53326
O     -1.48994    -0.84549    -1.22401
H     -1.49498    -0.09756    -0.60687
H     -1.93780    -2.05750    -3.36313
H     -0.94143    -1.01730    -4.42514
H     -0.17710    -2.15695    -3.30611
