 56
-1604.8033403763234
C      2.29510     1.22345     1.04519
C      3.12483     2.44174     1.30786
O      2.75472     0.10961     0.89086
O      0.99468     1.46535     0.97737
H      0.50416     0.62204     0.85950
H      3.28307     2.95674     0.36199
H      2.60655     3.11255     1.98770
H      4.08810     2.14800     1.71288
C     -3.69150    -0.61710     2.83616
C     -2.79645     0.57632     2.84232
O     -3.48162    -1.67030     2.27028
O     -4.82117    -0.42808     3.53543
H     -5.33452    -1.24315     3.47034
H     -3.25334     1.36705     2.25027
H     -2.65134     0.94501     3.85497
H     -1.84996     0.30923     2.39022
C     -3.48889    -0.10148    -1.07220
C     -4.49211    -1.19879    -1.23510
O     -3.60516     0.78228    -0.23785
O     -2.45952    -0.19532    -1.88687
H     -0.35262     4.63612    -1.84049
H     -4.17563    -2.03211    -0.61036
H     -5.46457    -0.85653    -0.89707
H     -4.53173    -1.53425    -2.26673
C      2.58885     1.09276    -2.20891
C      3.71633     0.15976    -2.51934
O      2.71805     2.24806    -1.87467
O      1.39215     0.49762    -2.31740
H      0.69792     1.15434    -2.15201
H      4.64109     0.71740    -2.62403
H      3.81000    -0.56021    -1.70757
H      3.50358    -0.40324    -3.42478
C     -0.58627    -1.76464     0.19976
C      0.35280    -2.16426    -0.88114
O     -0.49620    -0.74290     0.85858
O     -1.57774    -2.62582     0.38342
H     -2.15370    -2.31001     1.10638
H      0.67849    -3.19274    -0.75413
H     -0.16072    -2.08425    -1.83783
H      1.20812    -1.50815    -0.87674
C     -1.08938     2.90251    -0.87978
C     -0.22664     4.11860    -0.89132
O     -0.96709     2.00446    -1.70717
O     -1.98379     2.86608     0.07517
H     -2.57143     2.07334    -0.02130
H     -1.86392     0.58864    -1.79303
H     -0.47181     4.77603    -0.06504
H      0.80825     3.79142    -0.83422
C      4.28573    -2.79620     0.11728
C      5.18807    -4.00424     0.17296
O      3.46141    -2.61757    -0.74796
O      4.50479    -1.95297     1.12749
H      3.88189    -1.20276     1.06263
H      4.57312    -4.89801     0.26053
H      5.73865    -4.07849    -0.76269
H      5.87121    -3.93405     1.01201
