 48
-1375.5426070531146
C     -1.66003     0.42511     0.04889
C     -2.86149     1.28661    -0.20142
O     -0.92333     0.01742    -0.81653
O     -1.47634     0.16700     1.35100
H     -0.65782    -0.34460     1.44245
H     -2.53087     2.31551    -0.33441
H     -3.34770     0.96928    -1.12017
H     -3.55425     1.23852     0.63333
C      0.95330    -2.43460    -1.53770
C      0.07520    -2.88805    -2.65190
O      0.75199    -2.73065    -0.36025
O      1.95623    -1.67934    -1.91070
H      2.45038    -1.33751    -1.11997
H     -0.87913    -2.37074    -2.56027
H      0.53104    -2.66839    -3.61133
H     -0.13191    -3.94784    -2.54208
C      0.88663     2.53649    -1.13218
C      1.43258     1.71432    -2.25050
O      1.32211     2.49356     0.01025
O     -0.11699     3.30794    -1.48558
H     -0.44701     3.81444    -0.70226
H      1.61061     2.33850    -3.12386
H      2.34617     1.23045    -1.92683
H      0.69558     0.95788    -2.50312
C     -0.37831     4.73494     1.72148
C     -0.82092     5.67670     2.80424
O     -1.01775     4.55679     0.69567
O      0.75537     4.11910     1.98702
H      0.98743     3.50257     1.24327
H     -0.05858     6.43663     2.96006
H     -1.75941     6.13975     2.52408
H     -0.93709     5.12787     3.73592
C      2.47881    -0.33663     1.21067
C      2.93016     0.65500     2.23131
O      3.11065    -0.60438     0.20496
O      1.31018    -0.90895     1.48020
H      1.15312    -1.65099     0.84203
H      2.73423     0.28425     3.23363
H      3.98810     0.85352     2.09946
H      2.36664     1.57558     2.08628
C     -2.16250    -4.94741    -0.37091
C     -3.01973    -6.06815     0.15121
O     -2.47059    -4.20084    -1.26635
O     -0.99212    -4.88399     0.28114
H     -0.47777    -4.12980    -0.06111
H     -2.49878    -7.01594     0.02821
H     -3.20186    -5.92890     1.21504
H     -3.95893    -6.08617    -0.38932
