 48
-1375.540061135109
C     -0.32094    -1.13524     2.23738
C      0.47419    -2.23763     2.86937
O     -0.38801    -0.00737     2.66663
O     -0.95604    -1.52957     1.12414
H     -1.41721    -0.76368     0.74706
H      1.46598    -2.25084     2.42093
H      0.57746    -2.04360     3.93240
H     -0.00150    -3.19866     2.69298
C      4.72811    -1.98983    -1.11140
C      5.27066    -3.15563    -1.88716
O      4.41946    -2.08467     0.06765
O      4.61936    -0.88051    -1.80942
H      4.28500    -0.13857    -1.23308
H      5.42823    -2.88081    -2.92377
H      6.20649    -3.47236    -1.43309
H      4.57305    -3.98569    -1.81143
C      0.48470     1.35059    -2.14725
C      1.51982     1.21454    -3.22396
O      0.49795     2.21007    -1.29682
O     -0.46649     0.41049    -2.20995
H     -1.06571     0.53850    -1.45927
H      2.42558     0.79758    -2.78730
H      1.16750     0.56863    -4.02189
H      1.76338     2.20190    -3.60702
C     -2.46029     1.71544     0.87639
C     -1.40060     2.67729     1.27570
O     -2.27537     0.80742     0.05606
O     -3.61875     1.88087     1.45038
H     -4.30035     1.23598     1.11231
H     -1.83961     3.52320     1.79452
H     -0.71640     2.14207     1.93406
H     -0.85265     2.98490     0.39136
C      3.14292     0.89448     0.79145
C      2.36628     1.99340     1.43710
O      3.71771     1.03026    -0.27872
O      3.15853    -0.22722     1.48332
H      3.65576    -0.93070     0.98768
H      1.71391     1.57975     2.19476
H      3.07700     2.68538     1.89089
H      1.81335     2.52345     0.66908
C     -5.38627    -0.57459    -0.37883
C     -6.52162    -1.40649    -0.89355
O     -5.49990     0.22235     0.53667
O     -4.24867    -0.79132    -1.01854
H     -3.53145    -0.23465    -0.64976
H     -6.27173    -2.45978    -0.79083
H     -7.42429    -1.17921    -0.33996
H     -6.66637    -1.20302    -1.95181
