 48
-1375.5516901570995
C     -4.66309     0.37880    -0.18239
C     -5.60540     1.05855     0.75872
O     -4.66254    -0.82584    -0.37854
O     -3.82169     1.20909    -0.76896
H     -3.08204     0.70297    -1.16399
H     -5.87915     2.03650     0.37438
H     -6.48239     0.44222     0.92445
H     -5.08152     1.19744     1.70411
C      4.58010     0.70680    -2.21283
C      5.16337     1.19598    -3.50676
O      3.97721    -0.35604    -2.13896
O      4.76482     1.51139    -1.19145
H      4.37774     1.11552    -0.36113
H      5.84435     0.44236    -3.89443
H      4.36006     1.31165    -4.23075
H      5.67923     2.13779    -3.36041
C     -1.46712    -1.39834    -1.26142
C     -0.16970    -2.12325    -1.40869
O     -1.57052    -0.18108    -1.38242
O     -2.48673    -2.17588    -0.99737
H     -3.31651    -1.65494    -0.82989
H      0.59703    -1.43444    -1.73702
H      0.10831    -2.52909    -0.43911
H     -0.27850    -2.94519    -2.11298
C      0.48583     1.99765     0.33611
C      1.34741     3.20461     0.53454
O     -0.30430     1.57860     1.15529
O      0.70739     1.39207    -0.82293
H      0.01225     0.72114    -0.95423
H      1.17252     3.92332    -0.26397
H      1.13402     3.65777     1.49636
H      2.39120     2.90001     0.49126
C      2.92666    -0.43336     1.01049
C      2.21116    -0.81133     2.26253
O      3.71386     0.50245     0.96383
O      2.62141    -1.17266    -0.03371
H      3.13093    -0.88253    -0.83634
H      1.21554    -0.37389     2.23611
H      2.08016    -1.88700     2.32003
H      2.75590    -0.43532     3.12137
C     -1.86798    -1.40542     2.04333
C     -2.91773    -2.34146     2.55836
O     -0.74248    -1.73188     1.75000
O     -2.32547    -0.15887     1.89857
H     -1.59414     0.42064     1.60173
H     -3.60666    -2.57048     1.74598
H     -2.45335    -3.26224     2.89588
H     -3.48504    -1.88348     3.36501
