 64
-1834.060747336643
C     -2.12996    -3.56128    -0.47711
C     -1.03697    -4.57578    -0.44122
O     -2.74380    -3.22579     0.53250
O     -2.37816    -3.05782    -1.65773
H     -3.15799    -2.43537    -1.63824
H     -1.48151    -5.56301    -0.31402
H     -0.46238    -4.53324    -1.35806
H     -0.40735    -4.37157     0.41999
C      3.51130     3.30747    -0.27230
C      3.77363     4.77659    -0.31711
O      3.63457     2.64882     0.75876
O      3.11336     2.79189    -1.40175
H      2.97457     1.81285    -1.32177
H      4.01676     5.08705    -1.32683
H      2.86130     5.27943    -0.00065
H      4.56750     5.02831     0.37804
C      0.60243    -1.98022    -3.26959
C     -0.51938    -2.23526    -4.23204
O      1.26971    -2.84316    -2.75089
O      0.78096    -0.67221    -3.01882
H      1.55517    -0.58320    -2.44157
H     -0.43232    -3.24714    -4.61411
H     -1.46942    -2.13588    -3.71355
H     -0.49815    -1.51436    -5.04496
C      3.22579    -0.55184    -0.27937
C      3.21831    -2.03612    -0.34835
O      2.88099     0.16770    -1.21456
O      3.62339    -0.05115     0.87033
H      3.62991     0.93616     0.84028
H      3.95155    -2.45095     0.33603
H      2.22190    -2.37035    -0.05870
H      3.38771    -2.35700    -1.36850
C     -5.00943    -1.02154    -0.56873
C     -6.10658    -0.00114    -0.62168
O     -4.44947    -1.44951    -1.56823
O     -4.69338    -1.39514     0.65321
H     -3.97570    -2.07148     0.63669
H     -6.44689     0.12789    -1.64215
H     -6.92673    -0.30405     0.02353
H     -5.72083     0.94476    -0.24434
C     -1.00708     1.66584     0.01437
C     -1.37077     0.53415    -0.89554
O     -1.37542     1.74953     1.16472
O     -0.21301     2.56808    -0.56954
H      0.06614     3.22023     0.09955
H     -1.12510     0.76791    -1.92360
H     -0.81632    -0.34986    -0.58078
H     -2.43040     0.32068    -0.78285
C      0.71105     3.58791     2.55661
C     -0.38109     3.64728     3.57278
O      0.70020     4.17918     1.49341
O      1.71388     2.78991     2.91485
H      2.36022     2.75165     2.19003
H      0.00533     3.41863     4.56054
H     -0.84786     4.62770     3.55023
H     -1.12826     2.90307     3.29799
C     -0.04105    -1.41933     2.09172
C      0.74469    -0.68801     3.13694
O      0.34939    -1.62583     0.96320
O     -1.23310    -1.81108     2.53862
H     -1.72773    -2.25755     1.83216
H      1.79345    -0.68681     2.86952
H      0.39508     0.34363     3.17639
H      0.58984    -1.13762     4.11693
