 72
-2063.3253681110536
C      1.61259    -1.39176    -1.68680
C      0.38716    -2.02445    -1.10978
O      1.65251    -0.93215    -2.81672
O      2.64561    -1.39549    -0.86960
H      3.41736    -0.92110    -1.27038
H     -0.09158    -1.32091    -0.43241
H     -0.30417    -2.27120    -1.90521
H      0.66395    -2.90949    -0.54684
C     -0.69711     4.11013    -1.42268
C     -0.18990     5.45101    -1.00959
O     -0.04119     3.27230    -2.01384
O     -1.95562     3.90288    -1.07070
H     -2.21074     2.99469    -1.30904
H      0.53682     5.81249    -1.73062
H     -1.01663     6.14493    -0.90418
H      0.30565     5.33777    -0.04694
C     -4.93266    -0.56300     0.74496
C     -5.89844    -0.89338     1.84255
O     -4.25901    -1.38928     0.15992
O     -4.88109     0.73350     0.48963
H     -4.19516     0.91832    -0.18524
H     -6.87433    -0.47525     1.60888
H     -5.96419    -1.96803     1.96355
H     -5.55223    -0.43575     2.76702
C     -1.05444    -3.28876     2.51896
C     -0.79705    -4.73434     2.77981
O     -0.50008    -2.38421     3.12889
O     -1.93443    -3.07322     1.56460
H     -2.09582    -2.11900     1.43259
H     -1.62440    -5.33113     2.41292
H      0.12003    -5.00697     2.25823
H     -0.63410    -4.88563     3.84239
C     -2.43813     0.34722    -2.10378
C     -1.68432     0.63681    -3.36013
O     -2.92693     1.22815    -1.40294
O     -2.53921    -0.93015    -1.82515
H     -3.13168    -1.08844    -1.04559
H     -1.38719     1.67745    -3.37906
H     -0.81043    -0.00346    -3.42215
H     -2.33279     0.41868    -4.20943
C     -1.41687     0.63871     2.22899
C     -1.78091     2.07842     2.09456
O     -1.81556    -0.23464     1.48134
O     -0.60753     0.38929     3.24706
H     -0.42707    -0.57015     3.28415
H     -2.68124     2.16313     1.49781
H     -1.91753     2.52186     3.07690
H     -0.96626     2.59078     1.58731
C      4.51334     0.74299    -2.88095
C      5.55616     1.77567    -3.19876
O      4.64253    -0.03100    -1.94255
O      3.48133     0.75129    -3.69069
H      2.79128     0.10708    -3.38940
H      5.66250     2.43825    -2.34291
H      6.51218     1.28105    -3.35159
H      5.27494     2.34153    -4.07911
C      1.94389     2.16617     0.33969
C      3.05444     1.51235     1.10492
O      1.05921     2.81125     0.85647
O      2.03734     1.96763    -0.97026
H      1.27648     2.40263    -1.41000
H      2.71099     0.54513     1.47143
H      3.91531     1.35452     0.46510
H      3.31582     2.12367     1.96511
C      2.79594    -3.11438     2.19439
C      4.25798    -3.00852     1.87823
O      2.04266    -3.91982     1.70259
O      2.40067    -2.19752     3.09198
H      1.44680    -2.30402     3.23767
H      4.62172    -3.96564     1.51911
H      4.39109    -2.26896     1.09004
H      4.81213    -2.68211     2.75384
