 48
-1375.5401819300582
C      0.90751    -0.12542    -2.48761
C      2.23198    -0.78802    -2.70771
O      0.52830     0.85894    -3.06968
O      0.18834    -0.74580    -1.53501
H     -0.64413    -0.26011    -1.41556
H      2.66349    -0.44746    -3.64223
H      2.90513    -0.51072    -1.89983
H      2.13373    -1.86823    -2.69916
C      2.39951    -1.78610     0.84470
C      1.31397    -2.69187     1.31899
O      2.35749    -0.56405     0.97026
O      3.41161    -2.40587     0.28962
H      4.13225    -1.77269     0.02053
H      1.27968    -2.66163     2.40540
H      0.35941    -2.31060     0.97181
H      1.48512    -3.70325     0.96611
C     -0.90915     0.11720     2.48869
C     -2.23442     0.77847     2.70778
O     -0.52985    -0.86737     3.07033
O     -0.18927     0.73919     1.53766
H      0.64423     0.25494     1.41941
H     -2.90650     0.50119     1.89907
H     -2.66673     0.43704     3.64160
H     -2.13709     1.85871     2.69989
C     -2.39465     1.78641    -0.84197
C     -1.30620     2.68932    -1.31484
O     -2.35604     0.56438    -0.96864
O     -3.40526     2.40874    -0.28694
H     -4.12809     1.77743    -0.01958
H     -0.35308     2.30520    -0.96703
H     -1.27096     2.65956    -2.40117
H     -1.47462     3.70097    -0.96163
C      5.34762     0.44569    -0.20881
C      6.52027     1.30446    -0.57358
O      5.28179    -0.73450    -0.52234
O      4.40448     1.07474     0.45811
H      3.64934     0.46997     0.65990
H      7.43723     0.79167    -0.29728
H      6.53244     1.43690    -1.65300
H      6.45133     2.26741    -0.08137
C     -5.35090    -0.43808     0.20476
C     -6.52767    -1.29286     0.56560
O     -5.28157     0.74143     0.52009
O     -4.40850    -1.06948    -0.46103
H     -3.65129    -0.46676    -0.66113
H     -6.45438    -2.26040     0.08322
H     -6.55206    -1.41424     1.64608
H     -7.44121    -0.78223     0.27414
