 64
-1834.0602654063227
C     -1.28736    -2.75517    -0.53665
C     -0.25999    -3.64436    -1.14220
O     -1.47871    -2.66666     0.67211
O     -1.99090    -2.07146    -1.41475
H     -2.61816    -1.44767    -0.97164
H      0.38174    -3.06391    -1.79940
H      0.31352    -4.11736    -0.35861
H     -0.75294    -4.39432    -1.75709
C      2.10593     2.94066    -0.26952
C      1.84120     4.37478     0.06542
O      2.74098     2.18997     0.45366
O      1.57203     2.56198    -1.41179
H      1.74099     1.60160    -1.56865
H      2.49674     4.69547     0.86786
H      1.97982     4.99731    -0.81455
H      0.80527     4.46313     0.38504
C     -0.27896    -1.46212    -4.14559
C     -1.51663    -1.54407    -4.99437
O      0.49449    -2.37140    -3.97095
O     -0.12304    -0.25461    -3.57982
H      0.66840    -0.28052    -3.02140
H     -1.66215    -0.61728    -5.54402
H     -1.42970    -2.38346    -5.67688
H     -2.38346    -1.69717    -4.35212
C      2.89280    -0.72606    -1.12806
C      3.17602    -2.14331    -1.47169
O      2.14699    -0.00811    -1.79120
O      3.49930    -0.29497    -0.04572
H      3.25245     0.64816     0.14419
H      2.65079    -2.77900    -0.75890
H      2.83353    -2.35255    -2.47679
H      4.24055    -2.34020    -1.36785
C     -3.76782    -0.16093     0.99749
C     -4.54192     1.00263     1.54782
O     -3.76796    -0.46071    -0.18406
O     -3.08058    -0.81702     1.91385
H     -2.52793    -1.50662     1.48695
H     -5.40784     1.19870     0.92381
H     -4.83757     0.80606     2.57375
H     -3.89686     1.88007     1.53493
C     -1.47839     1.91441    -0.59762
C     -1.88716     1.87772    -2.02988
O     -0.99216     0.98945     0.00825
O     -1.70259     3.10346    -0.02840
H     -1.35117     3.09038     0.87857
H     -1.02962     2.14815    -2.64271
H     -2.16269     0.86023    -2.28553
H     -2.70255     2.56864    -2.22198
C      0.12794     2.34754     3.24131
C      0.36815     0.92210     2.87733
O     -0.50718     3.15288     2.59286
O      0.70472     2.69771     4.40090
H      0.49628     3.62780     4.55633
H     -0.31920     0.62178     2.09781
H      1.38651     0.83709     2.49926
H      0.27833     0.27043     3.73947
C      1.71938    -2.61307     2.26371
C      2.83639    -2.10718     3.12542
O      1.88998    -3.26910     1.26373
O      0.51212    -2.25787     2.71300
H     -0.15601    -2.53359     2.06350
H      3.26874    -2.94747     3.66655
H      3.60626    -1.67757     2.49212
H      2.46776    -1.37069     3.82939
