 48
-1375.5398596386972
C     -0.60596    -1.46171     2.07134
C      0.06509    -2.63637     2.72026
O     -0.59445    -0.33718     2.51547
O     -1.21441    -1.78097     0.92215
H     -1.60803    -0.97277     0.55623
H      1.08778    -2.70138     2.35175
H      0.09564    -2.48797     3.79590
H     -0.45669    -3.55626     2.46982
C      5.25668    -2.01688    -0.84890
C      6.21261    -2.99700    -1.46473
O      4.67874    -2.25266     0.20258
O      5.10360    -0.90519    -1.53285
H      4.46061    -0.29393    -1.08202
H      6.59485    -2.61564    -2.40457
H      7.02780    -3.17777    -0.76822
H      5.69778    -3.94254    -1.61572
C      0.37915     1.93480    -2.24635
C      1.44920     1.97013    -3.28746
O     -0.04817     2.92240    -1.67524
O     -0.04745     0.70993    -1.97453
H     -0.78164     0.74426    -1.33013
H      1.19539     1.29861    -4.10321
H      1.58064     2.98544    -3.64531
H      2.37573     1.62026    -2.83536
C     -2.18647     1.82728     0.73696
C     -2.97665     1.80329     1.99541
O     -2.12620     0.87613    -0.05289
O     -1.51843     2.93337     0.53650
H     -1.01474     2.92519    -0.32223
H     -2.45825     1.13539     2.68369
H     -3.03540     2.80251     2.41365
H     -3.96302     1.39168     1.79883
C      2.75369     0.44630     0.67734
C      1.71160     1.36166     1.22677
O      3.38309     0.70260    -0.33961
O      2.90363    -0.66587     1.36432
H      3.57994    -1.25782     0.93877
H      1.72890     1.37902     2.30976
H      1.84056     2.35208     0.81042
H      0.74251     0.97312     0.93577
C     -5.54028    -0.53999    -0.20358
C     -6.71647    -1.30523    -0.73890
O     -5.52837     0.03406     0.85752
O     -4.48960    -0.56593    -1.03735
H     -3.76115    -0.07124    -0.63324
H     -7.58856    -0.65573    -0.73550
H     -6.51728    -1.67431    -1.73880
H     -6.92678    -2.13375    -0.06576
