 64
-1834.0585233425054
C     -3.22730     0.05251    -0.40127
C     -2.40984    -1.12824    -0.78807
O     -2.97496     1.19295    -0.79396
O     -4.23386    -0.20455     0.39288
H     -4.73974     0.62152     0.62782
H     -1.37470    -0.93192    -0.53074
H     -2.74038    -2.01668    -0.26495
H     -2.45401    -1.24400    -1.86770
C      2.72679     1.62534    -0.13519
C      2.13901     2.99119    -0.20068
O      2.39070     0.78037     0.68961
O      3.64871     1.38529    -1.04200
H      4.04381     0.48708    -0.91502
H      1.09057     2.90951    -0.46976
H      2.17172     3.44270     0.78726
H      2.67364     3.59466    -0.92589
C      1.88351    -2.96644    -1.70980
C      0.67005    -3.44298    -2.43266
O      2.31501    -3.45409    -0.68579
O      2.46989    -1.92763    -2.31404
H      3.25168    -1.65949    -1.80248
H      0.26575    -2.63546    -3.03163
H      0.95519    -4.27305    -3.07908
H     -0.05732    -3.79377    -1.70731
C      4.68304    -1.61735     0.44654
C      5.52458    -2.81780     0.72192
O      4.65019    -1.06566    -0.65313
O      3.96815    -1.21508     1.45982
H      3.37134    -0.46871     1.20433
H      6.28460    -2.91664    -0.04422
H      5.96569    -2.74952     1.71135
H      4.87266    -3.68936     0.69957
C     -0.05103     0.77850    -2.95640
C      1.21444     1.23609    -3.62173
O     -0.73588    -0.12597    -3.36131
O     -0.33890     1.48647    -1.84982
H     -1.23483     1.25749    -1.53995
H      0.95393     1.78732    -4.52527
H      1.79014     1.87545    -2.96167
H      1.79969     0.36788    -3.91034
C     -5.42334     3.06393     0.50633
C     -6.33289     4.21466     0.81478
O     -5.50105     1.99253     1.09202
O     -4.53558     3.31835    -0.42950
H     -3.95181     2.53531    -0.57925
H     -6.30431     4.94022     0.00985
H     -7.34126     3.84661     0.97636
H     -5.99743     4.68348     1.73734
C     -0.78388     1.88004     2.13489
C     -2.12588     1.80493     2.79942
O     -0.15438     2.89067     1.95920
O     -0.35910     0.66932     1.72938
H      0.51453     0.77829     1.32424
H     -2.22453     0.88379     3.36623
H     -2.27019     2.66823     3.44013
H     -2.89994     1.81700     2.03536
C     -0.16049    -3.02707     1.90048
C     -0.76044    -2.63986     3.22415
O     -0.78827    -3.17263     0.87998
O      1.16996    -3.17407     1.97071
H      1.49375    -3.36877     1.07750
H     -1.84296    -2.64121     3.14599
H     -0.43216    -3.32511     4.00330
H     -0.42069    -1.64123     3.49215
