 72
-2063.3263840822015
C     -1.94027    -1.23365     2.09895
C     -2.82848    -0.13909     1.61052
O     -1.49418    -2.10682     1.35616
O     -1.65454    -1.18488     3.37121
H     -1.06323    -1.94473     3.63135
H     -3.19446     0.45740     2.43551
H     -2.26368     0.49325     0.93158
H     -3.64188    -0.55080     1.02228
C     -1.37838     3.20868    -0.56596
C     -2.01943     4.16860    -1.50780
O     -1.48466     3.31189     0.64628
O     -0.70618     2.23739    -1.14778
H     -0.23133     1.69078    -0.46759
H     -1.55750     5.14711    -1.40193
H     -1.92638     3.84828    -2.53302
H     -3.06258     4.26529    -1.22815
C      0.58753     1.15215     1.93073
C      1.44553     0.35466     2.85697
O      0.54562     0.92646     0.72752
O     -0.12647     2.08274     2.50800
H     -0.63511     2.60437     1.82975
H      2.49452     0.59641     2.71154
H      1.15969     0.52323     3.88683
H      1.34232    -0.69296     2.59643
C      0.74916    -3.69840     3.21448
C      1.92154    -4.51242     3.65372
O      0.00699    -3.11872     3.98995
O      0.61188    -3.63760     1.90412
H     -0.18661    -3.10459     1.67250
H      1.78286    -4.86315     4.66958
H      2.08947    -5.33860     2.97280
H      2.80210    -3.87409     3.62739
C     -1.86629     4.75820    -5.54862
C     -1.11152     5.64594    -6.49970
O     -2.32240     5.14383    -4.49755
O     -1.97707     3.50569    -5.99624
H     -2.46768     2.96697    -5.34354
H     -0.80809     5.09285    -7.38127
H     -1.74706     6.48470    -6.77541
H     -0.24187     6.05247    -5.98797
C      3.42195    -2.42668     0.75504
C      2.66998    -1.92963    -0.43740
O      3.53568    -1.77836     1.78855
O      3.93282    -3.62435     0.60007
H      4.50398    -3.87028     1.37532
H      1.79998    -2.56318    -0.58512
H      2.35081    -0.90832    -0.27027
H      3.29212    -2.00110    -1.32795
C     -1.55944    -0.72089    -2.03943
C     -0.97843    -0.34782    -3.36311
O     -2.59745    -0.28911    -1.57332
O     -0.80412    -1.58835    -1.37986
H     -1.18158    -1.72677    -0.49569
H     -0.59004    -1.23653    -3.85495
H     -1.72576     0.14769    -3.96964
H     -0.14752     0.33403    -3.19243
C     -4.10584     2.38366    -3.30747
C     -5.04925     3.50806    -3.58386
O     -3.31227     1.95282    -4.12400
O     -4.19482     1.91467    -2.07267
H     -3.58386     1.15986    -1.96449
H     -5.48109     3.38154    -4.57349
H     -5.82438     3.55745    -2.82617
H     -4.46973     4.43071    -3.59423
C      5.81195    -3.44646     3.53011
C      6.86906    -3.79848     4.53487
O      5.43903    -4.24299     2.67958
O      5.32832    -2.23044     3.65148
H      4.65094    -2.04431     2.94850
H      6.60628    -4.74031     5.00888
H      7.81084    -3.94876     4.01196
H      6.97288    -3.01097     5.27227
