 64
-1834.066494192177
C     -4.39928    -0.85720    -0.78762
C     -5.23304    -1.39426    -1.90895
O     -3.96589    -1.56155     0.11272
O     -4.17143     0.43578    -0.87007
H     -3.54605     0.72067    -0.15295
H     -6.02711    -0.69252    -2.14850
H     -4.59878    -1.50389    -2.78599
H     -5.63807    -2.36235    -1.63562
C      2.74199     1.22726     3.37786
C      2.75126     1.50564     4.84331
O      2.67567     2.10930     2.52834
O      2.80918    -0.04995     3.06743
H      2.90614    -0.18527     2.09547
H      3.47059     2.29464     5.04511
H      1.77394     1.88721     5.13523
H      2.98777     0.60703     5.40245
C      0.63941    -3.15681    -4.23131
C      1.28295    -4.48005    -4.52908
O     -0.53225    -3.06746    -3.89590
O      1.43893    -2.11983    -4.35055
H      0.91954    -1.28122    -4.21013
H      0.74950    -4.95621    -5.34868
H      2.32849    -4.34769    -4.78191
H      1.18187    -5.12107    -3.65608
C      3.10113     0.38062    -0.45968
C      3.17042     0.10422    -1.92499
O      3.18796    -0.48089     0.40797
O      2.94564     1.65502    -0.17908
H      2.88626     1.80783     0.78923
H      2.21197     0.34863    -2.37610
H      3.92901     0.74016    -2.37680
H      3.39668    -0.94013    -2.09539
C     -1.80571     0.35979     1.68378
C     -0.57759     0.76689     2.43183
O     -2.37602     1.12007     0.91501
O     -2.20541    -0.86661     1.92099
H     -2.93168    -1.12385     1.29445
H     -0.13592    -0.08098     2.93894
H      0.11704     1.19605     1.71601
H     -0.84195     1.54291     3.14322
C      0.40155    -2.44550    -0.21816
C     -0.69117    -3.46607    -0.27457
O      0.32008    -1.32856    -0.66995
O      1.50288    -2.89636     0.39943
H      2.15582    -2.17983     0.42162
H     -0.38621    -4.38395     0.22061
H     -1.57923    -3.06164     0.20515
H     -0.93820    -3.66329    -1.31471
C      0.08797     4.31073     4.00892
C     -0.98047     5.36469     3.98734
O      0.21887     3.46982     4.86659
O      0.88563     4.39046     2.93607
H      1.53926     3.67425     2.97744
H     -1.66615     5.15744     3.16635
H     -1.52195     5.35474     4.92571
H     -0.53894     6.34212     3.80893
C     -0.96331     0.15812    -3.28598
C     -1.41139     1.46187    -2.71751
O      0.05308     0.03786    -3.95170
O     -1.77784    -0.84731    -3.02141
H     -1.36420    -1.69083    -3.32921
H     -2.44995     1.63704    -2.98179
H     -1.35254     1.41223    -1.63368
H     -0.77818     2.26185    -3.08569
