 48
-1375.5423858223285
C     -0.80415     2.45600    -3.03632
C     -2.15541     2.96531    -3.44342
O      0.15906     3.15569    -2.83704
O     -0.79725     1.12281    -2.89444
H      0.05479     0.85318    -2.51829
H     -2.73124     2.18233    -3.92547
H     -2.67592     3.28904    -2.54204
H     -2.03866     3.82514    -4.09622
C      1.87489    -3.15996     0.22913
C      1.67611    -4.60454     0.55724
O      1.11628    -2.55056    -0.52182
O      2.89161    -2.59625     0.82076
H      2.94069    -1.62658     0.58315
H      0.89481    -4.66446     1.31438
H      1.32214    -5.12798    -0.32612
H      2.59096    -5.04927     0.93676
C     -0.12729     0.44568     2.41274
C      0.29345    -0.88130     2.95521
O     -0.42077     0.60237     1.23501
O     -0.13300     1.41890     3.29217
H     -0.38376     2.27692     2.86206
H      1.34463    -1.02585     2.71246
H      0.16761    -0.91380     4.03352
H     -0.28496    -1.66291     2.47127
C     -1.01861     3.82784     0.87380
C     -1.17277     5.15603     0.20046
O     -0.73893     3.70330     2.05297
O     -1.21918     2.80854     0.06037
H     -0.97978     1.95547     0.50651
H     -2.22674     5.32466    -0.01418
H     -0.81121     5.94029     0.85613
H     -0.62859     5.14882    -0.73951
C      2.27748     0.54379    -0.59640
C      2.36155     2.01199    -0.80079
O      2.89502    -0.05252     0.26722
O      1.46400    -0.07518    -1.43933
H      1.33960    -1.01179    -1.15439
H      3.05241     2.45270    -0.09170
H      2.66515     2.22885    -1.82170
H      1.36949     2.43488    -0.67679
C     -2.12709    -3.78280     0.31522
C     -3.55202    -4.21938     0.12093
O     -1.63885    -3.45983     1.37088
O     -1.43745    -3.80838    -0.83500
H     -0.54750    -3.44943    -0.66763
H     -3.57543    -5.20478    -0.34031
H     -4.05828    -4.23902     1.07891
H     -4.05725    -3.52955    -0.55275
