 48
-1375.5402087570471
C     -0.46132    -1.42099     1.87759
C     -1.43647    -1.17691     2.97534
O     -0.73558    -1.66537     0.71749
O      0.80391    -1.33458     2.29018
H      1.40439    -1.52824     1.54862
H     -1.50012    -0.10405     3.15253
H     -2.41542    -1.53804     2.68473
H     -1.08677    -1.65408     3.88800
C      2.74545    -2.02177    -0.82269
C      1.45402    -2.65482    -1.22973
O      2.90208    -1.48682     0.27529
O      3.68431    -2.07544    -1.72874
H      4.51821    -1.61638    -1.42555
H      1.61031    -3.32402    -2.06893
H      1.02086    -3.16979    -0.37993
H      0.75001    -1.87274    -1.50778
C     -0.44949     1.88294    -0.18734
C      0.98876     1.59126     0.08956
O     -0.84906     2.25149    -1.27881
O     -1.23905     1.68047     0.84546
H     -2.16429     1.96904     0.63339
H      1.61800     1.97959    -0.70303
H      1.28358     1.99404     1.05280
H      1.11440     0.51186     0.13247
C     -4.02858     2.99367    -0.84462
C     -5.44311     3.41119    -1.09818
O     -3.65997     2.55931     0.23687
O     -3.24138     3.11035    -1.88627
H     -2.32496     2.78160    -1.66548
H     -5.86878     3.83352    -0.19402
H     -5.49131     4.11374    -1.92312
H     -6.01740     2.52456    -1.36150
C      6.13183    -0.35733     0.09864
C      7.44490     0.26600     0.45889
O      5.92174    -0.86032    -0.99373
O      5.23262    -0.30961     1.06235
H      4.39141    -0.72946     0.77442
H      7.42603     0.63165     1.47888
H      8.23217    -0.47265     0.33225
H      7.64870     1.07943    -0.23288
C     -4.04935    -1.00962    -0.09863
C     -5.29532    -0.61808    -0.83980
O     -4.04140    -1.39835     1.04222
O     -2.94758    -0.84699    -0.84109
H     -2.18261    -1.13503    -0.31478
H     -5.69518     0.28217    -0.37839
H     -5.08352    -0.43578    -1.88729
H     -6.04094    -1.40239    -0.72824
