 24
-687.7611679042454
C     -1.10008    -2.55555     0.07044
C      0.30364    -2.04456    -0.05431
O     -2.09980    -1.91920    -0.14712
O     -1.14963    -3.84174     0.47115
H     -2.08446    -4.07454     0.52531
H      1.00030    -2.83323    -0.32164
H      0.32178    -1.25164    -0.79335
H      0.61311    -1.61884     0.89880
C      2.40628     1.43772    -0.08473
C      3.89967     1.59357    -0.07979
O      1.77409     1.24866     0.94439
O      1.85867     1.51975    -1.27547
H      0.86582     1.43469    -1.21811
H      4.14595     2.55608     0.36302
H      4.33573     0.82103     0.54669
H      4.28802     1.54233    -1.09037
C     -1.42060     1.22814    -0.10126
C     -2.91091     1.20934    -0.10941
O     -0.74252     1.25798    -1.11814
O     -0.89648     1.19430     1.10749
H      0.09103     1.24463     1.05359
H     -3.29262     1.77111     0.73752
H     -3.27728     1.61026    -1.04838
H     -3.23003     0.17301    -0.01454
