 64
-1834.062085525653
C     -4.08915    -1.69379    -0.55039
C     -4.53704    -3.11443    -0.54304
O     -4.22954    -0.94328     0.41428
O     -3.50315    -1.30236    -1.65490
H     -3.22414    -0.35443    -1.59143
H     -4.70219    -3.46114    -1.55717
H     -3.73745    -3.69897    -0.08861
H     -5.42976    -3.21436     0.06580
C      2.95843     2.00368     0.48000
C      2.34804     3.35593     0.43968
O      2.83182     1.23103     1.42809
O      3.65373     1.67430    -0.58464
H      3.95502     0.73582    -0.51489
H      1.44983     3.29917    -0.17726
H      2.05508     3.64975     1.43905
H      3.03559     4.06381    -0.01319
C      1.20903    -2.22485    -1.65584
C     -0.14720    -2.34114    -2.27967
O      1.69691    -3.04450    -0.91748
O      1.84642    -1.09429    -2.01537
H      2.70136    -1.05522    -1.55469
H     -0.72566    -3.08067    -1.73699
H     -0.64347    -1.37743    -2.25702
H     -0.04166    -2.64322    -3.32166
C      4.09127    -1.69133     0.54852
C      4.54081    -3.11143     0.54005
O      4.23045    -0.93996    -0.41564
O      3.50499    -1.30145     1.65340
H      3.22476    -0.35381     1.59055
H      3.74144    -3.69666     0.08612
H      5.43301    -3.21006    -0.06972
H      4.70735    -3.45847     1.55384
C     -1.20667    -2.22580     1.65430
C      0.14968    -2.34116     2.27823
O     -1.69390    -3.04540     0.91541
O     -1.84505    -1.09599     2.01431
H     -2.70058    -1.05824     1.55470
H      0.72849    -3.08012     1.73515
H      0.64566    -1.37716     2.25632
H      0.04413    -2.64425     3.31996
C     -2.96005     2.00268    -0.47907
C     -2.35051     3.35527    -0.43724
O     -2.83318     1.23101    -1.42793
O     -3.65471     1.67170     0.58551
H     -3.95514     0.73304     0.51507
H     -1.45301     3.29888     0.18081
H     -2.05660     3.64978    -1.43609
H     -3.03909     4.06243     0.01520
C     -0.40927     1.87008     2.83481
C     -1.62550     1.65216     3.67864
O     -0.35915     2.58796     1.86410
O      0.64593     1.17573     3.28238
H      1.39981     1.34477     2.69243
H     -2.48015     2.10233     3.18888
H     -1.78508     0.58833     3.81382
H     -1.47392     2.10420     4.65904
C      0.40720     1.87014    -2.83280
C      1.62395     1.65512    -3.67668
O      0.35645     2.58491    -1.85983
O     -0.64760     1.17687    -3.28302
H     -1.40199     1.34424    -2.69320
H      2.47795     2.10568    -3.18604
H      1.78474     0.59161    -3.81319
H      1.47191     2.10813    -4.65659
