 32
-917.0335623315839
C      0.39556    -0.82018     2.07572
C     -0.67767    -1.04408     3.09158
O      0.99998     0.23482     1.96727
O      0.59589    -1.85560     1.28504
H      1.33485    -1.66830     0.64559
H     -0.64159    -2.06073     3.47021
H     -0.57414    -0.32445     3.89570
H     -1.63568    -0.89310     2.59653
C     -1.67647     2.21455     0.22380
C     -1.70027     3.51048     0.97761
O     -1.11846     2.07698    -0.85312
O     -2.29147     1.23315     0.85162
H     -2.26433     0.40522     0.30279
H     -2.71613     3.74811     1.28317
H     -1.09524     3.39818     1.87497
H     -1.29322     4.30135     0.35906
C      2.62640    -0.16888    -0.89963
C      3.16966     0.11651    -2.26458
O      2.45819    -1.30683    -0.48210
O      2.32226     0.90854    -0.21396
H      1.88101     0.66302     0.63890
H      3.75894    -0.72522    -2.61389
H      2.32217     0.25910    -2.93343
H      3.75748     1.02914    -2.25346
C     -1.20512    -1.20004    -1.35874
C     -0.87140    -2.56538    -1.86377
O     -2.10289    -0.98191    -0.56082
O     -0.42082    -0.25469    -1.83234
H     -0.70754     0.63469    -1.48838
H     -0.67878    -2.53891    -2.93250
H      0.03802    -2.89381    -1.36326
H     -1.67784    -3.25188    -1.63261
