 56
-1604.8046554132745
C     -3.38170     0.44445     1.32027
C     -4.11887    -0.39281     2.32086
O     -3.90049     1.20556     0.54215
O     -2.05771     0.22666     1.35570
H     -1.61743     0.85585     0.76531
H     -5.16266    -0.09768     2.33161
H     -4.03657    -1.43841     2.03266
H     -3.68480    -0.27418     3.31133
C      1.34963    -1.89659     1.72920
C     -0.00886    -2.13232     2.32024
O      1.87765    -2.62852     0.92409
O      1.91453    -0.77707     2.19235
H      2.81777    -0.70195     1.82637
H     -0.47134    -1.19243     2.59557
H     -0.62246    -2.66700     1.60202
H      0.10595    -2.74891     3.21348
C     -0.27462     2.46360    -1.06857
C     -1.54997     2.92485    -1.68593
O     -0.18976     2.02623     0.07648
O      0.76273     2.55804    -1.86589
H      4.11962     3.63527     2.11345
H     -2.34881     2.85335    -0.95860
H     -1.43849     3.94484    -2.04876
H     -1.77013     2.28578    -2.53823
C     -0.85841    -1.18904    -1.51552
C      0.62444    -1.01192    -1.45768
O     -1.44214    -2.11441    -0.97559
O     -1.48882    -0.24926    -2.19236
H     -2.45513    -0.47840    -2.29063
H      1.10225    -1.98182    -1.39897
H      0.97247    -0.44085    -2.30846
H      0.88277    -0.47117    -0.54851
C     -4.60332    -1.35932    -1.39430
C     -6.07078    -1.16520    -1.18037
O     -4.00625    -0.89785    -2.35310
O     -4.01428    -2.05688    -0.44203
H     -3.03800    -2.12501    -0.61143
H     -6.54396    -0.88814    -2.11561
H     -6.52120    -2.06329    -0.76771
H     -6.19546    -0.35262    -0.46510
C      3.04776     2.46502     0.69211
C      4.32144     2.90933     1.33435
O      2.99861     2.00937    -0.44903
O      1.99781     2.56686     1.46525
H      1.17907     2.28396     0.98609
H      1.59477     2.32274    -1.39014
H      4.78656     2.03217     1.78117
H      4.99327     3.31031     0.58288
C      4.47618    -1.28017    -0.02204
C      4.91954    -2.69596    -0.16737
O      4.38009    -0.68526     1.03726
O      4.15091    -0.70612    -1.17530
H      3.84840     0.19279    -0.97529
H      5.28463    -2.87538    -1.17254
H      5.67809    -2.92121     0.57641
H      4.05386    -3.32967     0.02359
