 64
-1834.0545696323156
C     -1.85706    -1.64940     0.83537
C     -0.86056    -1.78582     1.93161
O     -1.93645    -2.42245    -0.11344
O     -2.66466    -0.61371     0.97015
H     -3.26180    -0.52081     0.18941
H     -0.77061    -0.85063     2.47008
H     -1.18557    -2.58263     2.60019
H      0.08894    -2.09514     1.50759
C      4.90108     0.30717     3.11255
C      5.51936    -0.44533     4.25035
O      5.54244     0.91011     2.27036
O      3.57760     0.25159     3.11415
H      3.21607     0.71769     2.33523
H      5.13413    -0.06006     5.19152
H      5.23759    -1.49381     4.18374
H      6.59712    -0.34480     4.21295
C     -4.11467    -0.88540    -2.29878
C     -4.82227    -0.49673    -3.55029
O     -4.18138    -0.24197    -1.25622
O     -3.38897    -1.97338    -2.41092
H     -2.90810    -2.16097    -1.57584
H     -4.15111     0.16016    -4.10274
H     -5.03823    -1.37550    -4.14898
H     -5.72433     0.05287    -3.30340
C      3.24771     2.47437     0.26234
C      2.64415     3.44505    -0.68265
O      2.60126     1.58479     0.82944
O      4.53261     2.61931     0.46143
H      4.88461     1.95887     1.11747
H      2.23073     2.88713    -1.52197
H      1.81771     3.94949    -0.18638
H      3.39594     4.15153    -1.01761
C      0.12312    -5.36424     0.90376
C      0.65697    -6.76256     0.77234
O      0.41620    -4.60945     1.79817
O     -0.72324    -5.04769    -0.08668
H     -1.03456    -4.13611     0.03545
H      1.74363    -6.72537     0.78564
H      0.33979    -7.33908     1.63869
H      0.30222    -7.22900    -0.13991
C     -2.21152     2.35275    -2.51816
C     -1.30777     3.53241    -2.65948
O     -2.27473     1.43529    -3.30361
O     -2.96107     2.41146    -1.40720
H     -3.47098     1.58893    -1.34355
H     -1.14181     3.98636    -1.68857
H     -0.36899     3.20513    -3.09630
H     -1.77387     4.25552    -3.33059
C     -0.71578     2.87370     1.58628
C     -2.12947     2.90324     2.08022
O     -0.20664     3.71455     0.88549
O     -0.05392     1.78215     2.00655
H      0.84776     1.81930     1.65101
H     -2.16942     3.47451     3.00834
H     -2.75309     3.39275     1.33989
H     -2.47754     1.89375     2.26575
C      0.91333    -0.00996    -2.05574
C      0.09974    -0.94890    -2.89211
O      1.34345     1.05396    -2.43430
O      1.11076    -0.46196    -0.80559
H      1.60660     0.21426    -0.32276
H     -0.14329    -1.84357    -2.32885
H     -0.80937    -0.43272    -3.19160
H      0.65898    -1.19914    -3.79227
