 48
-1375.5398502308765
C      1.19212     0.67543     2.66537
C      2.06303    -0.15526     3.54955
O      1.36340     1.86490     2.46489
O      0.22076    -0.01570     2.08685
H     -0.35465     0.58029     1.56752
H      2.67271     0.48805     4.17472
H      1.45106    -0.81951     4.15382
H      2.70567    -0.76629     2.91790
C      3.39438    -4.53601    -0.38139
C      3.66294    -6.00129    -0.19503
O      2.86535    -4.10010    -1.39403
O      3.77467    -3.78290     0.62617
H      3.57716    -2.82333     0.45068
H      4.32367    -6.34068    -0.98917
H      4.11049    -6.18437     0.77510
H      2.72750    -6.54635    -0.29441
C     -0.89403     2.79965     0.09371
C     -1.51545     3.57258    -1.01320
O     -1.37145     1.75310     0.55138
O      0.23264     3.29417     0.53542
H      0.61167     2.76777     1.29102
H     -1.03349     4.54025    -1.10363
H     -1.37347     2.99276    -1.92551
H     -2.58296     3.67062    -0.83456
C     -5.03413     2.26393     0.63899
C     -6.46617     2.06291     1.04433
O     -4.66773     3.05937    -0.19085
O     -4.19544     1.45265     1.30086
H     -3.29313     1.61702     0.98839
H     -6.54197     1.35989     1.86640
H     -6.89081     3.02525     1.31979
H     -7.02211     1.69748     0.18327
C      2.63469    -0.80954    -0.81409
C      2.24389     0.62430    -0.94219
O      3.23656    -1.24201     0.15895
O      2.24402    -1.56117    -1.82094
H      2.49030    -2.51294    -1.67078
H      1.19500     0.70677    -0.68239
H      2.83035     1.22439    -0.25906
H      2.34052     0.97218    -1.96344
C     -1.12923    -0.21652    -2.33704
C     -1.12342    -1.28992    -3.38523
O     -0.51772     0.82308    -2.42102
O     -1.87624    -0.53475    -1.27239
H     -1.82219     0.19657    -0.63662
H     -0.27793    -1.95133    -3.20230
H     -2.04148    -1.86927    -3.33733
H     -1.00012    -0.83884    -4.36592
