 48
-1375.551016101439
C     -3.30735    -3.84457     1.82171
C     -3.95970    -5.03940     2.45698
O     -2.78494    -3.90396     0.71860
O     -3.35573    -2.75240     2.55183
H     -2.86906    -2.00452     2.10641
H     -4.75091    -5.39717     1.80263
H     -3.22483    -5.83572     2.54449
H     -4.35872    -4.78015     3.43054
C      1.83977    -1.60603     1.58960
C      1.23123    -1.92944     2.92078
O      2.90804    -1.02731     1.46445
O      1.10261    -2.00112     0.57444
H      1.48368    -1.66819    -0.28219
H      1.89986    -1.61992     3.71658
H      0.27813    -1.41488     3.00699
H      1.04321    -2.99847     2.98256
C      1.72498     2.98763     0.18898
C      2.91132     2.68472     1.04539
O      1.64778     2.61663    -0.97474
O      0.78150     3.66183     0.80242
H      0.01326     3.82966     0.19587
H      3.74606     2.42434     0.40884
H      3.14530     3.53415     1.68090
H      2.66986     1.83460     1.67919
C     -1.38146     3.62566    -1.96033
C     -2.61261     3.82396    -2.79303
O     -1.30292     3.99101    -0.79902
O     -0.40675     3.02392    -2.60618
H      0.38248     2.90384    -2.01928
H     -3.39434     4.27433    -2.19285
H     -2.37703     4.46378    -3.64076
H     -2.94267     2.86568    -3.18636
C      3.07642    -0.33583    -1.77774
C      3.45763     0.33165    -3.06125
O      2.05485    -0.98985    -1.64106
O      3.94204    -0.13487    -0.80637
H      3.61145    -0.54590     0.03194
H      2.84694    -0.05244    -3.87019
H      3.28187     1.39979    -2.94894
H      4.51466     0.17617    -3.26069
C     -1.80801    -0.77304     0.15086
C     -1.32267     0.46752    -0.52431
O     -2.03223    -0.82345     1.35210
O     -1.96917    -1.78751    -0.66006
H     -2.27436    -2.58864    -0.16027
H     -1.30772     1.27995     0.18906
H     -0.32432     0.28989    -0.91431
H     -1.96460     0.71476    -1.36304
