 64
-1834.0649675895056
C     -2.03966    -1.74835     1.60204
C     -1.66616    -0.35426     1.24131
O     -2.22327    -2.11850     2.75504
O     -2.14125    -2.55304     0.56374
H     -2.36410    -3.47287     0.85299
H     -0.58303    -0.32325     1.17866
H     -2.06387    -0.10536     0.26493
H     -1.99840     0.33357     2.01009
C      3.38711     2.19744     1.97550
C      4.63933     1.83074     2.71398
O      2.27383     1.82661     2.33913
O      3.58304     2.93908     0.91951
H      2.72362     3.12075     0.45025
H      5.07503     2.72985     3.14644
H      4.41459     1.11744     3.49750
H      5.36344     1.41468     2.01746
C      0.87686    -0.08432    -1.74591
C      2.06605    -0.30568    -0.86539
O     -0.16457     0.39206    -1.35436
O      1.09072    -0.43609    -3.01085
H      0.26810    -0.27532    -3.52056
H      2.97832    -0.04476    -1.39113
H      1.93978     0.29399     0.02660
H      2.12150    -1.34388    -0.55288
C      0.18620     3.12245     0.10019
C     -1.03446     3.45420    -0.68394
O      1.32757     3.33268    -0.31412
O     -0.03878     2.58670     1.27106
H      0.81107     2.31834     1.69494
H     -1.75889     3.96634    -0.05434
H     -0.75748     4.05892    -1.53770
H     -1.48150     2.52792    -1.03280
C     -3.16581    -5.31599     2.50110
C     -3.67174    -6.67782     2.88929
O     -2.77867    -5.05262     1.37440
O     -3.18505    -4.45173     3.49357
H     -2.82472    -3.56665     3.20684
H     -4.68775    -6.59348     3.26751
H     -3.64318    -7.33416     2.02820
H     -3.05282    -7.07822     3.68884
C      1.41206     2.67328    -3.86565
C      1.88308     2.23414    -5.21315
O      0.26688     2.98586    -3.61585
O      2.37594     2.66666    -2.94845
H      1.99570     2.92938    -2.09482
H      1.67391     1.16959    -5.30771
H      1.32426     2.75842    -5.98183
H      2.94991     2.39734    -5.31825
C      1.52076    -1.52317     3.11481
C      1.19655    -2.78196     3.86224
O      1.21345    -1.30808     1.96706
O      2.19234    -0.63632     3.86509
H      2.30306     0.17137     3.33575
H      0.18063    -2.70615     4.24563
H      1.23551    -3.62780     3.18267
H      1.88108    -2.92121     4.69441
C     -2.25123     0.66173    -3.81193
C     -3.54416    -0.08624    -3.66013
O     -1.24103     0.18154    -4.28660
O     -2.33895     1.90513    -3.36268
H     -1.45849     2.32537    -3.37120
H     -3.61734    -0.86203    -4.41487
H     -3.56018    -0.55600    -2.67725
H     -4.37907     0.60359    -3.72487
