 72
-2063.326319660679
C      0.67056    -2.44447    -1.84395
C      2.06121    -2.82373    -1.46828
O     -0.30424    -2.64871    -1.12307
O      0.56082    -1.89286    -3.02352
H     -0.35481    -1.53147    -3.15032
H      2.06881    -3.31979    -0.50800
H      2.50243    -3.44663    -2.24126
H      2.66867    -1.92705    -1.39915
C      4.31483    -0.38267     0.91888
C      4.03097    -0.14560     2.36087
O      3.71516     0.19244     0.01117
O      5.26268    -1.25280     0.69008
H      5.38226    -1.39128    -0.28478
H      3.77246    -1.09219     2.82150
H      4.91848     0.25092     2.84796
H      3.21781     0.55349     2.47139
C     -5.90593     2.36082    -0.82693
C     -6.50792     3.59002    -1.44276
O     -6.50802     1.29706    -0.78555
O     -4.68808     2.52917    -0.35652
H     -4.36964     1.69061     0.06776
H     -5.79640     4.40701    -1.42786
H     -6.81046     3.36127    -2.46138
H     -7.40494     3.85624    -0.88915
C     -2.84982    -1.19848    -2.60963
C     -4.21529    -0.68787    -2.93746
O     -1.84554    -0.83678    -3.19928
O     -2.83045    -2.05103    -1.60469
H     -1.90019    -2.32183    -1.40359
H     -4.23635    -0.27395    -3.93880
H     -4.95418    -1.47238    -2.82345
H     -4.46212     0.10393    -2.23393
C     -4.46784    -0.75421     0.86732
C     -3.92273    -1.90733     1.63945
O     -3.85039     0.28699     0.69579
O     -5.67100    -0.95564     0.37565
H     -6.01611    -0.12635    -0.04356
H     -4.61586    -2.17236     2.43607
H     -3.82715    -2.75972     0.97250
H     -2.95504    -1.64523     2.04305
C      0.65571    -1.44103     2.08878
C      0.59834    -0.73973     3.40774
O      1.66339    -1.80146     1.52779
O     -0.56116    -1.63720     1.55663
H     -0.44032    -2.05512     0.68700
H      0.51791     0.33092     3.24052
H     -0.26096    -1.07613     3.98331
H      1.51543    -0.91372     3.95796
C      5.21144    -0.75266    -2.76903
C      5.64646    -0.83917    -4.20421
O      5.46379    -1.61888    -1.94555
O      4.51988     0.33737    -2.49565
H      4.21578     0.33917    -1.55489
H      6.26223     0.02222    -4.45150
H      6.20011    -1.75634    -4.36477
H      4.76879    -0.81164    -4.84639
C      0.32829     1.27415     0.10038
C     -1.03774     1.55218    -0.44231
O      0.75419     1.70188     1.15368
O      1.04759     0.48227    -0.68666
H      1.93877     0.35467    -0.29943
H     -1.44694     2.45292     0.00470
H     -1.01160     1.64970    -1.52345
H     -1.69951     0.72911    -0.18246
C      2.14565     3.02300     4.09129
C      2.55124     4.00078     5.16212
O      2.34485     1.83415     4.15760
O      1.54525     3.62191     3.05900
H      1.30105     2.95269     2.39447
H      2.22406     5.00320     4.91008
H      2.12025     3.68381     6.10945
H      3.63381     3.97314     5.27115
