 64
-1834.055531251249
C     -0.98049     0.47858    -2.42902
C      0.42665     0.40122    -2.92441
O     -1.73923     1.39278    -2.70695
O     -1.34282    -0.53788    -1.66034
H     -2.31949    -0.53517    -1.52525
H      1.09441     0.67465    -2.11211
H      0.66130    -0.61473    -3.22420
H      0.55738     1.09452    -3.75058
C      4.27207     2.65620     0.22637
C      3.78651     4.05919     0.37793
O      3.50173     1.70190     0.13382
O      5.57093     2.52248     0.20310
H      5.82801     1.56939     0.08872
H      3.19815     4.12787     1.28951
H      4.61620     4.75679     0.39653
H      3.11093     4.28362    -0.44416
C      0.98733    -2.89486    -0.65070
C     -0.42442    -3.22973    -0.27251
O      1.47054    -3.00489    -1.74865
O      1.68849    -2.41843     0.40343
H      2.56350    -2.13368     0.09793
H     -0.92793    -3.72939    -1.09166
H     -0.44556    -3.84220     0.62412
H     -0.95327    -2.30621    -0.05254
C      5.49164    -1.00322    -0.18629
C      5.93433    -2.41468    -0.38428
O      6.25056    -0.05500    -0.13272
O      4.17419    -0.87545    -0.06779
H      3.93083     0.07805     0.02084
H      5.36346    -2.86712    -1.19140
H      6.99528    -2.43819    -0.60153
H      5.72924    -2.98152     0.52197
C     -4.57742     0.67622    -1.22960
C     -5.89873     0.77181    -0.53146
O     -4.01050    -0.39781    -1.42681
O     -4.08432     1.82498    -1.60465
H     -3.18988     1.71513    -2.02950
H     -5.79196     0.34561     0.46335
H     -6.21686     1.80708    -0.47468
H     -6.62853     0.17613    -1.07474
C     -0.93164    -0.66986     2.49169
C      0.36932    -0.08541     2.96438
O     -1.32665    -1.76553     2.80881
O     -1.60081     0.13977     1.65644
H     -2.49342    -0.24258     1.49933
H      0.23365     0.94296     3.28903
H      0.76280    -0.69559     3.77229
H      1.08077    -0.08621     2.14043
C     -0.02668     2.87098     0.60031
C     -1.47059     2.92085     0.21848
O      0.46321     3.37219     1.57938
O      0.70662     2.17467    -0.29503
H      1.63204     2.16963    -0.00273
H     -1.85983     1.91172     0.13808
H     -2.03470     3.45974     0.97187
H     -1.59410     3.39698    -0.75148
C     -4.03417    -2.28225     1.23987
C     -4.06649    -3.29788     2.33097
O     -3.98148    -1.07696     1.42005
O     -4.06181    -2.81296     0.02405
H     -4.05869    -2.08552    -0.62053
H     -4.81919    -3.01496     3.06321
H     -4.26499    -4.28202     1.92309
H     -3.09905    -3.28085     2.83076
