 48
-1375.5396197025175
C      0.68306     0.69062     2.53100
C     -0.67457     1.21398     2.90009
O      1.35988    -0.02186     3.22916
O      1.05778     1.10912     1.31026
H      1.93640     0.74110     1.10126
H     -0.67984     2.29735     2.81447
H     -1.41065     0.82341     2.20071
H     -0.92606     0.90891     3.91091
C      2.38550    -1.51519    -2.24647
C      1.98952    -1.66910    -3.68077
O      2.45685    -2.44879    -1.46449
O      2.63883    -0.26424    -1.90142
H      2.95705    -0.21587    -0.96769
H      1.06769    -1.12023    -3.84845
H      2.75793    -1.24082    -4.32033
H      1.84578    -2.71910    -3.90736
C     -1.20751     0.75745    -1.46281
C     -0.29766     1.92945    -1.55921
O     -2.06011     0.61936    -0.59010
O     -1.00830    -0.14685    -2.39747
H     -1.62325    -0.92384    -2.28613
H     -0.76138     2.79806    -1.10569
H      0.60858     1.69059    -1.00764
H     -0.03707     2.11447    -2.59722
C     -2.87269     3.87040     0.82921
C     -3.66300     4.93839     1.52965
O     -1.68493     3.93023     0.62065
O     -3.63100     2.82357     0.47069
H     -3.06080     2.15826     0.05490
H     -3.38555     4.93527     2.58269
H     -3.39097     5.90831     1.12186
H     -4.72757     4.75796     1.42952
C      3.72700    -1.13128     1.36239
C      4.35477    -1.01698     2.70943
O      3.47783    -0.15067     0.65817
O      3.45212    -2.34961     0.98393
H      3.06046    -2.37837     0.06436
H      3.58343    -0.68071     3.40081
H      4.73890    -1.98059     3.02349
H      5.13880    -0.26559     2.68102
C     -2.96939    -2.64547    -0.99534
C     -3.51912    -4.02100    -0.77336
O     -2.52940    -2.28037    -2.07444
O     -3.00772    -1.87340     0.07389
H     -2.65476    -0.97964    -0.12919
H     -3.85448    -4.13484     0.25083
H     -4.34070    -4.18649    -1.46566
H     -2.74633    -4.74966    -1.00510
