 80
-2292.5798972704397
C      1.03458    -2.02333     1.80543
C     -0.03755    -3.04814     1.65311
O      1.32756    -1.49869     2.86330
O      1.65194    -1.72831     0.66462
H      2.33011    -1.02420     0.82579
H     -0.73871    -2.72034     0.88896
H      0.40507    -3.98701     1.32906
H     -0.55458    -3.17654     2.59927
C     -1.51328     1.25271     1.66434
C     -0.11011     1.59738     1.30693
O     -2.34379     2.08832     2.01036
O     -1.79249    -0.02614     1.55992
H     -2.74084    -0.21768     1.78365
H      0.48298     0.69215     1.27671
H     -0.11466     2.04410     0.31769
H      0.29902     2.29552     2.03117
C      0.28604    -4.14389    -3.80725
C     -0.74667    -4.53568    -4.80993
O      0.12534    -4.29998    -2.59303
O      1.37302    -3.63090    -4.31048
H      2.01112    -3.34059    -3.59968
H     -1.56744    -3.82285    -4.73465
H     -0.32188    -4.51423    -5.80681
H     -1.13522    -5.52159    -4.56925
C     -2.31372    -1.97711    -2.12541
C     -3.27262    -1.01006    -1.50675
O     -2.21697    -2.16509    -3.31428
O     -1.54891    -2.60426    -1.21929
H     -0.97242    -3.23617    -1.68870
H     -3.66877    -1.40160    -0.57381
H     -2.72192    -0.09720    -1.28598
H     -4.07221    -0.78422    -2.20658
C      3.15902    -3.77999    -1.35768
C      4.35490    -3.75581    -0.45981
O      3.09629    -3.13703    -2.39369
O      2.17521    -4.54821    -0.92626
H      1.40190    -4.46760    -1.53060
H      4.51139    -4.72916    -0.00527
H      5.23051    -3.44042    -1.01705
H      4.16204    -3.03221     0.33003
C     -0.15373     4.83210     3.18868
C      0.21239     5.91180     4.16378
O      0.56567     4.47239     2.27392
O     -1.34103     4.30288     3.43046
H     -1.54332     3.58327     2.80174
H      0.17695     5.51988     5.17785
H      1.20654     6.27900     3.93909
H     -0.50920     6.72320     4.09764
C      0.85519     4.06344    -1.37164
C      0.44229     4.34155    -2.78301
O      1.87087     3.47034    -1.05644
O     -0.02817     4.49863    -0.48308
H      0.27522     4.30506     0.42532
H     -0.21927     5.20047    -2.82358
H      1.31706     4.49216    -3.40841
H     -0.09165     3.46176    -3.14040
C     -5.22962     0.33445     2.03928
C     -6.67669    -0.05388     2.05372
O     -4.33113    -0.49407     2.01877
O     -5.01596     1.63423     2.04917
H     -4.04966     1.82082     2.03966
H     -6.86622    -0.68256     2.91998
H     -7.30455     0.82888     2.07722
H     -6.88778    -0.64787     1.16784
C      3.12399     1.10828     2.15616
C      3.68565     2.49109     2.06378
O      3.28323     0.25650     1.29930
O      2.42444     0.90007     3.25695
H      2.06141    -0.01571     3.23137
H      3.88064     2.73909     1.02611
H      2.98388     3.19124     2.50432
H      4.61868     2.52656     2.62605
C      0.85251     0.45826    -2.11483
C      0.82203    -0.88629    -2.78283
O     -0.14122     1.05094    -1.74482
O      2.08538     0.92242    -1.96307
H      2.06050     1.82375    -1.58153
H      1.71245    -1.03586    -3.38386
H      0.79463    -1.66153    -2.02314
H     -0.08200    -0.96863    -3.37458
