 80
-2292.575942641517
C      4.98706    -0.34535    -1.95359
C      5.53515    -1.09727    -3.11669
O      5.22269    -0.65390    -0.78845
O      4.23216     0.68232    -2.27396
H      3.82135     1.10002    -1.48025
H      5.36480    -0.54563    -4.03404
H      6.59439    -1.28082    -2.95938
H      5.02826    -2.06069    -3.15748
C     -1.36927     1.74316     2.30585
C     -1.72615     2.90085     3.17474
O     -1.85385     1.52995     1.20039
O     -0.46320     0.94530     2.83241
H     -0.23577     0.24318     2.18400
H     -1.93936     2.55786     4.18572
H     -0.86962     3.57015     3.21187
H     -2.57071     3.42645     2.74594
C     -3.37350    -2.48418     0.13533
C     -3.16411    -1.06633    -0.28095
O     -2.42662    -3.26521     0.26832
O     -4.60960    -2.83248     0.35542
H     -4.68626    -3.78568     0.64676
H     -2.53738    -0.56315     0.44799
H     -2.62798    -1.05467    -1.22451
H     -4.11021    -0.54894    -0.37945
C     -3.98044     3.81965    -0.16535
C     -4.86861     4.43871    -1.20258
O     -3.22690     4.43672     0.54911
O     -4.11760     2.48498    -0.12105
H     -3.38992     2.13717     0.41832
H     -5.12227     5.45206    -0.90669
H     -4.32317     4.47523    -2.14505
H     -5.75914     3.83273    -1.33885
C     -3.93857    -6.11155     1.36894
C     -4.15268    -7.50583     1.87264
O     -4.86464    -5.34949     1.13890
O     -2.67040    -5.79135     1.19833
H     -2.58646    -4.86827     0.86358
H     -4.74229    -8.05483     1.14281
H     -3.20264    -7.99889     2.04112
H     -4.73157    -7.46347     2.79151
C     -0.81949     2.20925    -2.32964
C      0.13113     2.04846    -3.47822
O     -1.72545     2.99749    -2.30428
O     -0.53247     1.37203    -1.31527
H     -1.12187     1.55729    -0.55612
H     -0.33593     2.42696    -4.38283
H      1.02729     2.63340    -3.27389
H      0.41919     1.00822    -3.60585
C      3.48039    -3.64062    -0.66303
C      2.63269    -4.79885    -0.22221
O      3.55443    -3.25555    -1.80631
O      4.13378    -3.06268     0.35337
H      4.61157    -2.28865     0.01531
H      2.83241    -5.04780     0.81464
H      1.58507    -4.53280    -0.34407
H      2.83165    -5.65354    -0.86538
C      0.48298    -1.22937    -0.12369
C      1.71827    -0.71234    -0.78849
O      0.03023    -0.80581     0.91943
O     -0.08953    -2.22778    -0.77684
H     -0.91046    -2.51604    -0.32168
H      1.54610     0.29974    -1.13762
H      2.51673    -0.65726    -0.05942
H      1.99633    -1.36387    -1.60729
C      3.61885     1.68884     1.09998
C      3.12772     2.44357     2.29139
O      3.21078     1.89073    -0.04130
O      4.52475     0.77961     1.37889
H      4.80636     0.28177     0.57638
H      2.11946     2.10708     2.51946
H      3.78049     2.27895     3.14248
H      3.05794     3.49769     2.04666
C      0.58602     4.53566     0.27050
C     -0.37459     5.58887    -0.17233
O      0.63290     4.06066     1.38152
O      1.41067     4.14214    -0.71367
H      1.99534     3.45199    -0.36566
H     -0.92543     5.22851    -1.03659
H     -1.07152     5.80349     0.62696
H      0.17319     6.48622    -0.46088
