 40
-1146.279994444202
C      0.47202     0.52851    -1.51965
C      0.77041     1.99048    -1.64387
O      1.01675    -0.21534    -0.73606
O     -0.47982     0.12080    -2.36775
H     -0.67073    -0.81827    -2.19638
H      1.81805     2.16158    -1.41959
H      0.51237     2.34696    -2.63611
H      0.18598     2.53227    -0.90259
C     -0.76712    -3.49136    -1.46586
C      0.61280    -3.26027    -0.94437
O     -1.45995    -2.59253    -1.93770
O     -1.17481    -4.73078    -1.36935
H     -2.10897    -4.84126    -1.70021
H      1.16392    -2.64778    -1.65035
H      0.54756    -2.67930    -0.02721
H      1.10780    -4.20756    -0.76087
C      2.05933     1.70970     2.52546
C      1.81660     0.25623     2.27049
O      2.42054     2.13432     3.61334
O      1.84962     2.48396     1.47969
H      2.03884     3.43576     1.69775
H      2.36504    -0.06295     1.39034
H      2.10650    -0.31267     3.14586
H      0.76366     0.10031     2.04847
C     -4.41745    -4.22166    -2.61107
C     -5.83304    -4.49593    -3.01688
O     -3.66820    -5.09944    -2.21338
O     -4.06455    -2.95593    -2.72078
H     -3.12956    -2.83008    -2.44024
H     -5.83896    -5.27897    -3.77041
H     -6.37703    -4.87133    -2.15349
H     -6.30126    -3.59489    -3.39551
C      2.76516     5.41727     3.13767
C      3.07162     6.86878     3.36921
O      2.36170     5.00877     2.05688
O      2.96663     4.64677     4.17990
H      2.75560     3.69555     3.96770
H      3.41853     7.02623     4.38385
H      3.82610     7.18702     2.65391
H      2.17473     7.45260     3.17747
