 48
-1375.5429798012644
C     -1.38653    -2.61431     1.80537
C     -0.40825    -3.27872     2.72804
O     -1.47840    -2.91373     0.62386
O     -2.11465    -1.67378     2.36867
H     -2.80178    -1.34999     1.72906
H     -0.57027    -4.35378     2.70118
H      0.59698    -3.08275     2.36457
H     -0.52291    -2.90142     3.73815
C      1.73425    -0.78328    -0.44680
C      0.39535    -1.07932    -1.03058
O      2.38432     0.22152    -0.73152
O      2.16340    -1.68229     0.40581
H      3.07323    -1.46095     0.75122
H     -0.36815    -0.63840    -0.39763
H      0.32585    -0.62773    -2.01256
H      0.22949    -2.14991    -1.07428
C      0.12179     2.37080    -2.75261
C     -0.17706     3.55447    -3.62093
O     -0.72903     1.60776    -2.33494
O      1.41091     2.22757    -2.48763
H      1.56020     1.46631    -1.89397
H     -0.59855     3.20272    -4.56001
H     -0.93497     4.15988    -3.12888
H      0.72057     4.13360    -3.80167
C     -2.29579     2.11837     0.79581
C     -2.46115     2.00633     2.28328
O     -2.84207     2.93527     0.10095
O     -1.46118     1.17422     0.30752
H     -1.31279     1.34983    -0.64353
H     -1.50985     2.19978     2.77877
H     -3.20120     2.72621     2.61962
H     -2.77480     0.99737     2.54835
C      5.26606    -0.20901     1.08936
C      6.63357    -0.00290     1.66524
O      4.57126    -1.17126     1.37685
O      4.88625     0.73614     0.25222
H      3.98491     0.55197    -0.09683
H      7.08109     0.89959     1.26584
H      6.55338     0.05831     2.74745
H      7.24779    -0.86917     1.43398
C     -3.75444    -0.83757    -0.58854
C     -4.55749     0.06191    -1.47291
O     -3.91825    -0.89374     0.62069
O     -2.85550    -1.54808    -1.23545
H     -2.30614    -2.07430    -0.60336
H     -4.68358    -0.38836    -2.45306
H     -5.51559     0.27056    -1.00998
H     -4.01186     0.99844    -1.58419
