 56
-1604.8014968109396
C     -1.00323     0.21136    -2.70132
C     -2.24624    -0.29774    -2.02968
O     -0.88342     0.37930    -3.88606
O     -0.01001     0.44539    -1.81331
H      0.75789     0.79497    -2.29514
H     -2.04454    -1.25417    -1.55496
H     -2.56780     0.38772    -1.24871
H     -3.03373    -0.41934    -2.76385
C     -4.29819    -3.40337    -1.56776
C     -4.62849    -4.30376    -2.72155
O     -3.33979    -3.61023    -0.83648
O     -5.11342    -2.38285    -1.42446
H     -4.90031    -1.87535    -0.59555
H     -4.94452    -5.26869    -2.33156
H     -5.41541    -3.86984    -3.32762
H     -3.73120    -4.46874    -3.31182
C      0.88934     0.15265     1.93848
C      1.02449    -0.96106     0.95348
O     -0.19347     0.52854     2.36158
O      2.03110     0.70378     2.30103
H      1.23615     4.79759     5.36451
H      2.05063    -1.31598     0.92737
H      0.34171    -1.76068     1.22939
H      0.73263    -0.57683    -0.01872
C     -3.49012    -1.16668     1.43510
C     -3.18344    -0.29658     2.61203
O     -4.51194    -1.05031     0.77756
O     -2.55046    -2.05369     1.16478
H     -2.83533    -2.65946     0.42998
H     -4.08878    -0.15738     3.19471
H     -2.38683    -0.72833     3.20386
H     -2.84891     0.67701     2.25907
C      2.95936    -0.20889    -3.33756
C      2.51283    -0.72161    -4.66702
O      2.58042     0.87527    -2.89583
O      3.77749    -0.98912    -2.68492
H      4.02120    -0.59479    -1.79943
H      2.97822    -1.67616    -4.88468
H      1.42922    -0.80955    -4.65724
H      2.77168     0.01179    -5.42707
C      0.44266     3.22943     4.16412
C      0.27387     4.47339     4.98781
O      1.53278     2.71718     3.95632
O     -0.68998     2.75160     3.69300
H     -0.51912     1.92594     3.17383
H      1.87103     1.44701     2.94215
H     -0.17159     5.25313     4.37452
H     -0.40611     4.27167     5.81190
C      4.32656     1.22382    -0.03901
C      5.01951     1.81247     1.14709
O      4.41279     0.04477    -0.35018
O      3.60490     2.08843    -0.72336
H      3.21709     1.65904    -1.52423
H      5.78027     1.12945     1.50767
H      5.45444     2.77216     0.88426
H      4.28104     1.98072     1.92864
