 80
-2292.5880867416968
C      3.54103     3.83058    -0.60616
C      4.46412     4.81976     0.02885
O      3.84494     3.15874    -1.57928
O      2.36358     3.74604    -0.02194
H      1.83162     3.03474    -0.44853
H      4.96114     4.32548     0.86272
H      5.21459     5.13543    -0.68865
H      3.90722     5.67069     0.40816
C     -2.47231     1.05241    -1.87324
C     -3.51509     0.32570    -1.08997
O     -2.12413     0.70548    -2.98997
O     -1.96391     2.08635    -1.23532
H     -1.30674     2.57592    -1.79159
H     -3.74006    -0.61955    -1.56556
H     -3.14881     0.17083    -0.07646
H     -4.41252     0.93959    -1.03277
C     -2.06048    -3.02754    -3.22288
C     -2.37743    -2.66870    -4.63864
O     -2.91411    -3.10758    -2.35200
O     -0.77842    -3.22354    -2.99432
H     -0.62822    -3.38905    -2.03847
H     -1.62764    -3.07768    -5.30765
H     -3.37091    -3.02074    -4.89487
H     -2.36101    -1.58161    -4.71613
C      3.24429     2.02817     2.47745
C      3.12617     3.18778     3.41894
O      4.24588     1.73781     1.86953
O      2.09469     1.35513     2.34232
H      2.23015     0.63192     1.71232
H      2.30395     3.04454     4.11406
H      4.06264     3.32473     3.95281
H      2.93263     4.08760     2.83516
C     -1.23800    -3.31700     0.52402
C     -0.92794    -3.27385     1.98637
O     -0.36652    -3.50605    -0.32172
O     -2.49760    -3.13879     0.23284
H     -2.66052    -3.15460    -0.75231
H     -0.32598    -4.13687     2.26081
H     -0.33847    -2.38266     2.19309
H     -1.84801    -3.24138     2.55496
C     -3.58484    -2.17672     4.84751
C     -4.40568    -3.03040     5.76915
O     -3.90315    -1.99196     3.67916
O     -2.50782    -1.66234     5.39178
H     -2.03442    -1.08302     4.73433
H     -5.41103    -2.62079     5.83112
H     -4.48870    -4.02834     5.34571
H     -3.95066    -3.07124     6.75193
C     -1.78124     0.24850     2.55348
C     -1.11061     1.30139     1.74267
O     -1.31989    -0.17142     3.60423
O     -2.90576    -0.20833     2.03627
H     -3.31748    -0.87868     2.63931
H     -0.63086     0.82704     0.88994
H     -1.83430     2.00295     1.34668
H     -0.35328     1.79326     2.33571
C      0.11334     3.02441    -3.90040
C      1.36656     3.63328    -4.45603
O     -0.53595     3.52823    -3.00411
O     -0.19630     1.86803    -4.46332
H     -0.96771     1.46852    -4.00158
H      1.44310     3.45304    -5.52432
H      1.38458     4.69529    -4.23942
H      2.22038     3.16460    -3.97028
C      1.66045     0.74830    -1.66240
C      0.94427    -0.52369    -1.96821
O      1.08776     1.73789    -1.23911
O      2.95908     0.71079    -1.87251
H      3.35228     1.61385    -1.74232
H      0.04873    -0.29985    -2.53948
H      1.58374    -1.20415    -2.51642
H      0.63849    -0.97988    -1.03063
C      2.68496    -1.98941     0.72680
C      4.15616    -1.74981     0.63312
O      1.86368    -1.10773     0.90170
O      2.34529    -3.26696     0.58648
H      1.37760    -3.33993     0.47649
H      4.43665    -0.93905     1.29728
H      4.70750    -2.65826     0.86148
H      4.38946    -1.44277    -0.38695
