 56
-1604.803422253764
C     -0.56362    -1.37357    -1.29825
C     -1.88531    -0.76260    -0.95096
O     -0.05784    -2.29618    -0.70313
O      0.00445    -0.77945    -2.35334
H      0.90235    -1.13538    -2.46212
H     -1.92842     0.26089    -1.30161
H     -2.68597    -1.33249    -1.41965
H     -2.02143    -0.80795     0.12259
C     -5.53716    -0.15691    -2.58353
C     -6.11323    -0.82715    -3.79646
O     -5.63256    -0.64980    -1.46944
O     -4.92468     0.97946    -2.83096
H     -4.59257     1.39888    -1.99196
H     -7.18556    -0.94266    -3.65958
H     -5.90338    -0.24461    -4.68561
H     -5.68831    -1.82406    -3.88291
C      1.37804    -0.16767     2.22683
C      1.67286    -1.61128     1.99655
O      2.22483     0.61984     2.62282
O      0.13564     0.18106     1.95728
H     -0.34783     5.10822     3.77474
H      0.77476    -2.20990     2.07261
H      2.05034    -1.72757     0.98605
H      2.44333    -1.94250     2.68177
C     -3.95042     1.50074     0.48033
C     -3.21254     2.07674     1.64501
O     -3.97564     2.03610    -0.61787
O     -4.57738     0.37821     0.75507
H     -5.02748     0.02158    -0.05332
H     -2.51804     1.34869     2.05189
H     -2.66299     2.95904     1.34415
H     -3.92786     2.32878     2.42528
C      2.92131    -2.92000    -1.69323
C      2.16969    -3.89756    -2.53209
O      3.64283    -3.24442    -0.76920
O      2.72073    -1.65475    -2.03548
H      3.24648    -1.04404    -1.44150
H      1.10942    -3.77419    -2.31831
H      2.33325    -3.68615    -3.58604
H      2.48315    -4.90612    -2.28743
C      0.61835     3.56385     2.69614
C      0.31911     5.01916     2.91962
O     -0.21468     2.79456     2.23621
O      1.83200     3.20326     3.04467
H      1.98064     2.23127     2.88322
H      0.00702     1.15837     2.06104
H      1.23420     5.56770     3.10676
H     -0.20328     5.41241     2.05227
C      4.85245    -0.40558     0.42346
C      5.64622     0.60663     1.18538
O      4.04835    -0.09094    -0.44211
O      5.06583    -1.64769     0.79328
H      4.54618    -2.26636     0.21804
H      4.97354     1.09907     1.88554
H      6.44835     0.12005     1.72924
H      6.03054     1.35987     0.50290
