 80
-2292.5813267079616
C      0.36249     4.81029    -0.03748
C     -0.28684     6.13862     0.15760
O      1.24504     4.39033     0.69901
O     -0.09749     4.11094    -1.05361
H      0.44948     3.29787    -1.18170
H     -0.64128     6.53432    -0.78855
H     -1.13878     6.01849     0.82826
H      0.41223     6.81986     0.63128
C     -2.18257     0.60972    -1.63140
C     -2.72802     1.98661    -1.81220
O     -1.42871     0.28818    -0.71483
O     -2.56821    -0.22845    -2.55995
H     -2.15868    -1.12605    -2.44849
H     -2.04979     2.52570    -2.47241
H     -3.71226     1.94787    -2.27221
H     -2.75853     2.49786    -0.85757
C      2.88105    -6.71513    -0.65795
C      3.85757    -7.59905    -1.37216
O      1.69428    -6.68826    -0.95051
O      3.41425    -5.97150     0.28816
H      2.72902    -5.40398     0.71373
H      3.51258    -8.62785    -1.31242
H      3.87242    -7.32030    -2.42298
H      4.84608    -7.50040    -0.94017
C      1.62294    -1.24256     3.20931
C      1.92337     0.20292     3.46160
O      0.92764    -1.92883     3.91598
O      2.20174    -1.70062     2.08322
H      1.94885    -2.63018     1.96675
H      2.25834     0.31769     4.49050
H      2.66551     0.58005     2.77097
H      1.00300     0.77087     3.34442
C      0.33110    -4.70264     1.37998
C     -0.65247    -4.13914     2.34884
O      1.52663    -4.41840     1.40215
O     -0.18762    -5.52174     0.49805
H      0.50296    -5.88909    -0.11901
H     -0.29301    -4.29320     3.36256
H     -0.70147    -3.06217     2.20729
H     -1.62742    -4.58877     2.19831
C     -1.31021     2.87087     1.94744
C     -0.87417     3.46495     3.24431
O     -2.18404     3.32009     1.23218
O     -0.63402     1.77630     1.62097
H     -0.96607     1.42263     0.77968
H     -0.96327     2.72222     4.03481
H      0.17277     3.74731     3.16021
H     -1.48235     4.33454     3.46613
C     -3.75816     6.17231     2.22895
C     -4.81815     7.19633     2.53373
O     -2.58996     6.31595     2.50540
O     -4.25400     5.09370     1.61804
H     -3.53643     4.45486     1.44547
H     -4.57381     8.12167     2.01608
H     -5.79512     6.83946     2.22804
H     -4.80555     7.40891     3.60048
C     -0.39712    -2.82848    -1.77550
C      0.54258    -3.93945    -2.09977
O     -1.39508    -2.58856    -2.42859
O     -0.07136    -2.12620    -0.69864
H     -0.60739    -1.30589    -0.64063
H      1.02045    -3.72789    -3.05271
H      1.30319    -4.03723    -1.33604
H     -0.01434    -4.86844    -2.19420
C      2.07955     1.44191    -0.48730
C      2.53508     0.02828    -0.58401
O      1.38516     1.97711    -1.35016
O      2.47669     2.08555     0.57942
H      2.05874     2.98937     0.62075
H      3.16905    -0.22951     0.25384
H      1.65416    -0.61008    -0.58393
H      3.05140    -0.13070    -1.52712
C      0.49050    -0.36018    -4.00409
C     -0.18953    -0.82157    -5.25714
O      1.19008    -1.05610    -3.30700
O      0.21766     0.92102    -3.72453
H      0.67050     1.16419    -2.90011
H     -0.28289    -0.00848    -5.97081
H      0.35957    -1.65404    -5.68663
H     -1.18776    -1.16696    -4.99036
