 72
-2063.3311986814933
C      5.61207     0.08176     2.12487
C      7.10956     0.08600     2.15757
O      4.93976     0.46557     3.07054
O      5.09327    -0.35802     0.99671
H      4.10896    -0.30790     1.02356
H      7.51037    -0.32923     1.24065
H      7.45333     1.10853     2.29307
H      7.44624    -0.48687     3.01740
C     -1.74307     4.48701     0.08016
C     -3.11222     4.72360    -0.46904
O     -1.54086     3.80763     1.08695
O     -0.77814     5.04533    -0.59836
H      0.10569     4.91887    -0.14178
H     -3.09019     5.50515    -1.22092
H     -3.46615     3.79159    -0.90665
H     -3.78525     4.98204     0.34429
C      1.75943     3.73913     1.33280
C      3.15017     3.26549     1.59738
O      1.49959     4.66200     0.58039
O      0.83425     3.06689     1.98956
H     -0.06501     3.36211     1.70674
H      3.24096     2.91978     2.62113
H      3.35540     2.42438     0.93960
H      3.86801     4.05224     1.39335
C     -3.10655    -4.51238    -0.24527
C     -4.60597    -4.55354    -0.24278
O     -2.43127    -5.20229    -0.99067
O     -2.60628    -3.67281     0.63647
H     -1.62091    -3.60178     0.53670
H     -4.95635    -5.23561    -1.00819
H     -4.96192    -4.87460     0.73373
H     -4.99188    -3.55406    -0.42338
C     -3.22519     0.84186     0.33715
C     -3.84374    -0.52320     0.33896
O     -3.02916     1.51512    -0.64804
O     -2.89653     1.25016     1.56800
H     -2.53263     2.14630     1.49945
H     -3.21838    -1.20478     0.90390
H     -4.82214    -0.47893     0.81699
H     -3.94556    -0.88146    -0.67787
C      0.53649    -3.68097    -0.80159
C      1.85263    -3.08825    -1.19351
O     -0.01544    -3.41977     0.25615
O      0.03702    -4.49794    -1.70272
H     -0.85301    -4.82303    -1.41935
H      1.72209    -2.52817    -2.11471
H      2.20252    -2.44266    -0.39804
H      2.57020    -3.88701    -1.37411
C      0.04675     1.06091    -1.48151
C     -0.48676     1.91770    -2.58053
O     -0.45064     0.02110    -1.10163
O      1.15846     1.54783    -0.91855
H      1.52071     0.87774    -0.31402
H      0.11096     2.81698    -2.68475
H     -0.47590     1.34737    -3.50701
H     -1.51732     2.17103    -2.34548
C     -1.60231    -2.21832    -3.36318
C     -2.37228    -3.27060    -4.10424
O     -0.61123    -1.67199    -3.77321
O     -2.14786    -1.95581    -2.16045
H     -1.62538    -1.24148    -1.74624
H     -1.94417    -3.40590    -5.09264
H     -2.32274    -4.20456    -3.54780
H     -3.41827    -2.98036    -4.18776
C      1.77764    -0.01535     2.14836
C      0.29507    -0.17649     2.17007
O      2.43310    -0.07411     1.10786
O      2.32775     0.17690     3.31656
H      3.31753     0.24620     3.24250
H     -0.10577     0.20407     1.23545
H      0.05210    -1.23569     2.24180
H     -0.13265     0.36014     3.00993
