 72
-2063.3222788178987
C      3.20616    -2.61349     2.01634
C      3.99955    -3.87304     1.86426
O      3.69015    -1.49856     1.89743
O      1.93275    -2.82229     2.27098
H      1.47401    -1.96528     2.46890
H      3.99813    -4.41708     2.80668
H      3.52663    -4.50075     1.11561
H      5.01600    -3.63248     1.57386
C     -2.22277     0.48474     1.02640
C     -2.30633    -1.00769     1.01016
O     -1.41597     1.12594     0.38341
O     -3.10979     1.03612     1.83939
H     -3.06915     2.01770     1.80281
H     -3.34208    -1.33612     1.01873
H     -1.78230    -1.38671     0.14136
H     -1.81221    -1.38550     1.90309
C      0.06661     3.39423    -3.13566
C      0.68442     4.75065    -3.26731
O     -1.06003     3.21763    -2.70491
O      0.86285     2.41075    -3.51041
H      0.40022     1.54538    -3.40475
H     -0.09637     5.49832    -3.35753
H      1.25603     4.94341    -2.36188
H      1.35473     4.77874    -4.12099
C      1.12418    -2.94130    -0.93371
C      1.91079    -1.72643    -1.28140
O     -0.09281    -2.92122    -0.80740
O      1.83999    -4.02770    -0.75992
H      1.25945    -4.78317    -0.47378
H      1.38027    -1.14354    -2.02802
H      1.97349    -1.10343    -0.39130
H      2.90412    -1.99890    -1.61534
C     -2.60671     4.62943     1.20906
C     -1.67822     4.26431     0.10978
O     -3.18084     3.84938     1.94540
O     -2.77191     5.95304     1.36025
H     -3.38229     6.07669     2.09837
H     -0.67400     4.14668     0.50787
H     -1.95684     3.31330    -0.32059
H     -1.65370     5.02335    -0.66250
C     -0.96168    -5.89677     0.22698
C     -1.74232    -7.07044     0.74205
O      0.24529    -5.95755     0.03293
O     -1.67848    -4.81758     0.00984
H     -1.09315    -4.08342    -0.31390
H     -1.59165    -7.91678     0.07663
H     -1.35305    -7.35008     1.71812
H     -2.79491    -6.82255     0.81221
C      1.94088     2.38601    -0.42711
C      3.41096     2.26845    -0.68299
O      1.35829     3.42453    -0.24120
O      1.31682     1.20397    -0.43935
H      0.35508     1.35267    -0.41968
H      3.87280     1.66331     0.09432
H      3.57639     1.77505    -1.63955
H      3.85719     3.25739    -0.69704
C     -1.75724     0.06264    -3.01318
C     -2.44711    -1.26487    -3.08345
O     -0.54637     0.18244    -3.09685
O     -2.57733     1.07634    -2.85356
H     -2.05523     1.91153    -2.77598
H     -2.82284    -1.41238    -4.09525
H     -1.74566    -2.05227    -2.83426
H     -3.29058    -1.26646    -2.40042
C      1.35252     0.57612     2.94549
C      0.62267     1.78893     3.43283
O      0.82891    -0.52550     2.90480
O      2.58772     0.80713     2.56370
H      3.02664    -0.04153     2.29468
H     -0.38625     1.76602     3.03206
H      0.55130     1.74842     4.51890
H      1.13780     2.69345     3.13215
