 48
-1375.5451012648548
C     -3.32567     0.48285     3.36979
C     -3.61935    -0.00559     4.75366
O     -4.09506     0.32563     2.43259
O     -2.16069     1.08119     3.25848
H     -1.98084     1.32229     2.31939
H     -4.64613    -0.34536     4.81409
H     -2.94493    -0.82840     4.98162
H     -3.43222     0.78728     5.47261
C      3.77023    -0.84329    -3.16856
C      4.30406    -0.83615    -4.57095
O      2.57219    -0.76765    -2.92872
O      4.69008    -0.92457    -2.23521
H      4.27150    -0.93086    -1.33292
H      3.83414    -1.63777    -5.13511
H      4.02656     0.10156    -5.04664
H      5.38142    -0.95246    -4.56560
C     -2.42916     1.42136    -0.24415
C     -2.09920     1.72167    -1.66836
O     -1.64510     1.60754     0.68325
O     -3.61946     0.91095    -0.07129
H     -3.79483     0.73154     0.89453
H     -1.34973     2.50472    -1.70951
H     -1.69331     0.81301    -2.11212
H     -2.99679     2.00320    -2.21266
C      1.64060     2.75010    -0.67086
C      3.08397     2.51945    -1.00861
O      0.94574     3.62717    -1.11524
O      1.19415     1.82006     0.19295
H      0.23999     1.94413     0.31389
H      3.44000     3.29265    -1.67941
H      3.68495     2.49795    -0.10300
H      3.17941     1.54517    -1.48021
C      2.32953    -1.13503     0.33710
C      1.80320    -1.34907     1.71240
O      3.49981    -0.89064     0.10520
O      1.42034    -1.24031    -0.62479
H      1.84636    -1.06987    -1.50996
H      0.96590    -0.67862     1.88509
H      1.42158    -2.36365     1.80624
H      2.59113    -1.17284     2.43689
C     -1.99407    -2.18858     0.64823
C     -3.39132    -2.70047     0.47389
O     -1.38154    -2.17833     1.68582
O     -1.48716    -1.70731    -0.50202
H     -0.55220    -1.49363    -0.35656
H     -3.50958    -3.17712    -0.49501
H     -3.62194    -3.39396     1.27589
H     -4.08042    -1.85998     0.53164
