 32
-917.0157573692325
C      1.80615     0.38848     2.98254
C      1.47958    -0.09313     1.60087
O      1.11222     1.11525     3.64960
O      2.99045    -0.07026     3.43280
H      3.10718     0.29396     4.31914
H      1.44630     0.77057     0.94349
H      2.21815    -0.79739     1.23094
H      0.49587    -0.55259     1.61112
C     -1.73510     1.36244     1.42169
C     -1.83254     2.23615     2.62559
O     -2.15555     0.21475     1.39223
O     -1.13589     1.92732     0.38687
H     -1.16923     1.33197    -0.39968
H     -0.94817     2.06618     3.23939
H     -1.85814     3.28014     2.33123
H     -2.70898     1.96282     3.20434
C      1.77493    -1.18451    -2.44498
C      3.25014    -1.43692    -2.59482
O      0.90889    -1.97006    -2.74139
O      1.53062     0.02645    -1.92451
H      0.56652     0.15481    -1.87841
H      3.69605    -0.66983    -3.22497
H      3.72962    -1.38074    -1.61877
H      3.40901    -2.41814    -3.02707
C     -1.97021    -0.72996    -1.81710
C     -2.24052    -1.45598    -3.09128
O     -1.28069     0.28942    -1.76507
O     -2.52273    -1.25647    -0.75877
H     -2.35279    -0.70816     0.06043
H     -1.31389    -1.92515    -3.41531
H     -3.00786    -2.20473    -2.93545
H     -2.53766    -0.73970    -3.85274
