 48
-1375.5427156840453
C     -0.43642    -0.20622    -2.09985
C     -1.70774     0.12673    -2.80793
O     -0.40006    -0.81766    -1.04734
O      0.63741     0.23138    -2.72319
H      1.43730     0.00108    -2.20764
H     -2.01163     1.12799    -2.50377
H     -1.55908     0.12160    -3.88428
H     -2.47914    -0.57717    -2.52392
C      3.47768    -3.04070     0.72440
C      3.13604    -4.33613     1.38859
O      4.03426    -2.12046     1.30489
O      3.10396    -2.98439    -0.53671
H      3.14120    -2.05474    -0.85239
H      3.78017    -4.50274     2.24513
H      2.10237    -4.26702     1.72626
H      3.20919    -5.15311     0.67754
C     -1.45720     2.82197    -0.24755
C     -2.58755     3.78014    -0.49852
O     -0.44399     2.78711    -0.90718
O     -1.70899     1.98049     0.75575
H     -0.88929     1.46946     0.95329
H     -2.23599     4.59293    -1.12562
H     -3.38922     3.25204    -1.01064
H     -2.97917     4.16356     0.44048
C      0.80343    -0.37335     1.94673
C      1.37933    -0.55346     3.31340
O      0.46461     0.69815     1.48549
O      0.73533    -1.49277     1.25541
H      0.34481    -1.29395     0.37470
H      2.46023    -0.64470     3.21593
H      1.15538     0.30899     3.93293
H      1.00075    -1.46381     3.77027
C      3.04830     0.54552    -0.44916
C      2.62992     1.93122    -0.79539
O      2.85313    -0.40561    -1.20724
O      3.63560     0.40532     0.70963
H      3.84974    -0.54795     0.89889
H      1.55850     2.04472    -0.61525
H      3.16945     2.65695    -0.19784
H      2.79477     2.09979    -1.85500
C     -5.00468     0.21925    -0.25550
C     -3.80690    -0.40121     0.39871
O     -4.98365     1.02374    -1.15150
O     -6.16650    -0.22185     0.27806
H     -6.87074     0.23839    -0.19487
H     -3.93921    -1.47239     0.52566
H     -2.93205    -0.19963    -0.20289
H     -3.64580     0.04446     1.37706
