 48
-1375.538536774145
C      0.27612     1.62841     3.26500
C      0.02331     3.03319     3.72916
O     -0.07277     0.63417     3.85114
O      0.92939     1.59619     2.09046
H      1.04978     0.66577     1.84042
H     -0.52737     3.01168     4.66332
H      0.96849     3.55759     3.86397
H     -0.54779     3.56459     2.97066
C      3.55848    -1.14413    -1.75348
C      4.74206    -1.00892    -2.66526
O      2.47787    -1.55562    -2.14606
O      3.78629    -0.77661    -0.50957
H      2.97023    -0.88991     0.04070
H      5.02278    -1.99643    -3.02437
H      4.45347    -0.41731    -3.53007
H      5.57334    -0.54733    -2.14520
C      0.31183     3.01911    -1.60278
C      0.98995     1.69987    -1.43704
O     -0.65250     3.40776    -0.97654
O      0.87814     3.78869    -2.54442
H      0.37350     4.61189    -2.57939
H      1.93647     1.84399    -0.92134
H      0.37080     1.04074    -0.84122
H      1.19309     1.24300    -2.40097
C     -2.20815     0.79918     0.87810
C     -3.09110     0.12754     1.87150
O     -1.55529     0.21247     0.03340
O     -2.16865     2.11456     1.02018
H     -1.60402     2.50668     0.32148
H     -3.81843     0.82511     2.27516
H     -3.56966    -0.73238     1.41546
H     -2.45639    -0.23012     2.68226
C      0.71670    -1.86548     0.68307
C     -0.30045    -2.29520     1.68001
O      1.55149    -0.99004     0.90917
O      0.65272    -2.49886    -0.45821
H      1.31377    -2.14754    -1.10721
H     -0.13641    -1.76553     2.60982
H     -1.29456    -2.09134     1.28803
H     -0.23670    -3.37171     1.82386
C     -3.00679    -2.66848    -1.13546
C     -3.56510    -3.75025    -2.01732
O     -3.02296    -2.71411     0.07276
O     -2.48307    -1.65729    -1.83316
H     -2.12802    -1.00205    -1.20930
H     -2.94545    -4.63891    -1.90864
H     -4.56464    -4.00546    -1.67371
H     -3.58184    -3.43365    -3.05420
