 40
-1146.2736697794242
C      1.14337    -2.80644     0.20293
C      0.34519    -4.05471     0.06517
O      1.68456    -2.46244     1.23594
O      1.20273    -2.07010    -0.90745
H      1.79126    -1.28699    -0.76505
H      0.57886    -4.54652    -0.87507
H      0.53879    -4.70693     0.90915
H     -0.70812    -3.77747     0.04796
C      3.00101     0.54410     0.63040
C      3.63767     1.88029     0.81407
O      2.67473     0.11190    -0.47541
O      2.79275    -0.11836     1.73669
H      2.39973    -1.01407     1.55203
H      2.85457     2.63044     0.70762
H      4.08671     1.95386     1.79808
H      4.37059     2.04412     0.02943
C      0.10612     2.47865    -1.05167
C     -1.05991     3.23902    -1.60333
O      0.58252     2.66198     0.04595
O      0.57262     1.55986    -1.90326
H      1.29672     1.08385    -1.46974
H     -0.89189     4.30260    -1.45005
H     -1.19725     3.02205    -2.65777
H     -1.95113     2.96100    -1.04403
C     -2.07264     1.15241     1.97175
C     -0.87096     0.28682     1.77335
O     -2.88661     1.42410     1.12140
O     -2.16534     1.65933     3.21907
H     -2.96350     2.20091     3.23256
H     -1.12065    -0.51070     1.08113
H     -0.09636     0.91045     1.33130
H     -0.49623    -0.12090     2.70536
C     -2.22989    -1.35319    -1.44877
C     -3.52062    -0.73634    -1.89282
O     -2.06920    -1.91979    -0.39128
O     -1.24743    -1.21312    -2.34743
H     -0.45088    -1.60957    -1.96232
H     -4.32533    -1.44816    -1.72869
H     -3.71555     0.13404    -1.26867
H     -3.46973    -0.44783    -2.93751
