 72
-2063.3253048655088
C      6.43768     2.07382     0.01121
C      7.90697     2.02171    -0.27917
O      5.62081     2.56577    -0.75425
O      6.11256     1.54127     1.17097
H      5.13685     1.55357     1.30456
H      8.24150     0.98701    -0.26886
H      8.10846     2.47091    -1.24384
H      8.44853     2.54937     0.50233
C     -1.89276     0.41238     2.09285
C     -3.35475     0.73422     2.06911
O     -1.24442     0.24015     3.09373
O     -1.38056     0.32918     0.85250
H     -0.46755    -0.00735     0.89624
H     -3.56868     1.52218     1.35416
H     -3.89246    -0.15873     1.75794
H     -3.68301     1.01488     3.06493
C      1.41955    -1.32108     2.16621
C      0.87764    -2.53783     2.83180
O      1.11147    -0.96201     1.03686
O      2.26682    -0.63701     2.90089
H      2.57507     0.15414     2.41429
H      0.06565    -2.22160     3.48560
H      0.48819    -3.22564     2.09089
H      1.65193    -3.00500     3.43585
C     -4.97202    -2.80154     2.71286
C     -5.87533    -3.03069     3.88850
O     -3.75478    -2.87426     2.80632
O     -5.60154    -2.51542     1.59505
H     -4.95618    -2.39431     0.84823
H     -5.56735    -2.38067     4.70351
H     -6.90768    -2.84227     3.61666
H     -5.75604    -4.05712     4.22866
C      0.13752     1.96525    -2.61686
C      1.35453     2.80699    -2.83300
O     -0.54327     2.03258    -1.60660
O     -0.11954     1.14354    -3.60744
H     -0.98613     0.68630    -3.45206
H      1.41861     3.55922    -2.05829
H      2.23258     2.16759    -2.77249
H      1.32367     3.26699    -3.81779
C     -2.63524    -2.46192    -0.27317
C     -1.74589    -2.35506    -1.46032
O     -3.82385    -2.16735    -0.30824
O     -2.04257    -2.89478     0.81906
H     -2.67961    -2.89999     1.58068
H     -0.88744    -3.00557    -1.37063
H     -2.31762    -2.56651    -2.35613
H     -1.39928    -1.32927    -1.54231
C      2.67927     2.25135     0.83491
C      1.20526     2.31577     1.05705
O      3.42410     1.53734     1.49905
O      3.11872     3.02823    -0.12078
H      4.08112     2.86312    -0.32336
H      0.90104     3.35223     1.18981
H      0.67893     1.92384     0.18896
H      0.93624     1.72743     1.92419
C      2.08813    -0.94744    -2.27039
C      2.91335    -0.61763    -3.48390
O      1.34746    -1.88995    -2.18256
O      2.26038    -0.05109    -1.27405
H      1.78993    -0.38914    -0.48283
H      3.17676    -1.53713    -4.00211
H      2.31863    -0.00665    -4.16253
H      3.80961    -0.06720    -3.20842
C     -3.38615     0.69010    -2.53805
C     -4.85118     0.45976    -2.74967
O     -2.52455     0.15718    -3.22028
O     -3.12488     1.48556    -1.52141
H     -2.14830     1.63242    -1.42098
H     -5.03141     0.11093    -3.76083
H     -5.16490    -0.30814    -2.04336
H     -5.40621     1.36903    -2.53979
