 48
-1375.537372923814
C      0.05048     0.23118    -1.09314
C      1.33160    -0.53754    -1.04994
O     -0.15098     1.25032    -0.47173
O     -0.86413    -0.32819    -1.88934
H     -1.69174     0.17296    -1.80293
H      1.72103    -0.70479    -2.04919
H      2.04284     0.03268    -0.46993
H      1.16909    -1.50082    -0.57708
C      3.91370    -2.22340     0.68911
C      3.36328    -3.44084     1.35523
O      4.14324    -1.17860     1.29344
O      4.14727    -2.36825    -0.59094
H      4.48490    -1.52755    -0.99442
H      4.03697    -3.73148     2.15850
H      2.40286    -3.19216     1.80099
H      3.25659    -4.24544     0.63686
C      1.04546    -0.29067     2.54203
C     -0.16914     0.43138     3.04283
O      1.03258    -1.38434     2.02777
O      2.16395     0.42652     2.71530
H      2.91061    -0.07749     2.35470
H     -0.54008     1.07871     2.24858
H     -0.94210    -0.28863     3.29282
H      0.08743     1.04608     3.90088
C     -3.58455     1.95519    -0.69151
C     -2.66012     3.11321    -0.86893
O     -3.51403     0.93507    -1.37427
O     -4.47781     2.11681     0.25347
H     -5.07680     1.32433     0.33313
H     -1.68120     2.82203    -0.48787
H     -2.54764     3.31420    -1.93030
H     -3.03699     3.97889    -0.33550
C      5.03815     1.00407    -1.11183
C      5.33520     2.29090    -1.82246
O      4.88469    -0.05785    -1.69423
O      4.95316     1.13653     0.19780
H      4.71851     0.27872     0.62159
H      4.56181     3.01868    -1.58796
H      6.28200     2.69102    -1.46749
H      5.37583     2.11705    -2.89040
C     -6.30877    -0.78522    -0.41338
C     -7.42269    -1.78610    -0.36813
O     -6.14106     0.04757     0.46339
O     -5.54266    -0.88649    -1.48151
H     -4.81298    -0.22526    -1.44805
H     -7.31434    -2.51237    -1.16496
H     -7.42224    -2.27232     0.60312
H     -8.36790    -1.25781    -0.46850
