 72
-2063.3199441348697
C     -1.18885    -4.88101    -0.38473
C     -0.44766    -5.52801    -1.50656
O     -0.69377    -4.73214     0.73169
O     -2.39531    -4.47165    -0.67668
H     -2.85101    -4.08441     0.12127
H     -1.12770    -5.79480    -2.30783
H      0.29036    -4.81223    -1.86630
H      0.08467    -6.39662    -1.12954
C      2.04880    -1.09249    -3.88130
C      1.06290    -2.15603    -4.23849
O      1.73211     0.08555    -3.73296
O      3.27842    -1.50963    -3.76084
H      3.87503    -0.77292    -3.45799
H      0.91353    -2.14220    -5.31735
H      1.43986    -3.12344    -3.93091
H      0.11912    -1.95469    -3.74255
C     -2.59420     4.31184     3.98540
C     -2.66249     5.64079     4.68039
O     -2.86854     3.25977     4.54104
O     -2.20885     4.39486     2.72850
H     -2.20572     3.50099     2.30055
H     -2.93565     5.49657     5.71853
H     -1.69943     6.14063     4.60905
H     -3.39874     6.26929     4.18436
C     -3.12721    -3.31601     2.54912
C     -3.87567    -2.66881     3.67123
O     -3.61902    -3.50879     1.44823
O     -1.88987    -3.64511     2.85629
H     -1.45336    -4.09304     2.09198
H     -3.44794    -1.68709     3.86551
H     -4.92085    -2.56410     3.40240
H     -3.77009    -3.25941     4.57829
C     -2.15696     0.94210     2.24576
C     -1.80305    -0.36721     1.61626
O     -2.14548     1.99906     1.63266
O     -2.50152     0.84334     3.51067
H     -2.65988     1.74462     3.90709
H     -2.73059    -0.85445     1.32273
H     -1.19577    -0.20881     0.73446
H     -1.27679    -0.98702     2.32994
C      1.40837    -2.04079    -0.30449
C      2.33273    -0.86617    -0.31291
O      1.16963    -2.72900    -1.27344
O      0.84614    -2.27619     0.88718
H      0.34233    -3.10189     0.82744
H      1.86222    -0.03850    -0.83474
H      2.57334    -0.55341     0.69599
H      3.23430    -1.13466    -0.85267
C      4.42590     1.49761    -2.38341
C      5.32154     2.43534    -1.64700
O      4.79965     0.42784    -2.82695
O      3.17050     1.92405    -2.52498
H      2.63356     1.24519    -3.00916
H      5.01026     2.46152    -0.60437
H      6.34729     2.09291    -1.72549
H      5.21461     3.43851    -2.05259
C     -0.79925     1.40590    -2.03260
C     -1.93418     2.22551    -1.50118
O     -0.20520     0.56474    -1.39904
O     -0.50003     1.71613    -3.29477
H      0.23892     1.15215    -3.56787
H     -1.53636     2.96800    -0.81302
H     -2.46056     2.71895    -2.31277
H     -2.60366     1.59742    -0.92378
C      2.01911     2.89518     0.48929
C      1.25033     3.39410     1.67838
O      2.97974     2.16794     0.54005
O      1.50564     3.36159    -0.65779
H      2.03209     2.98519    -1.37787
H      1.42413     2.75353     2.53618
H      1.57658     4.40677     1.91625
H      0.19252     3.42699     1.44254
