 40
-1146.271546000628
C      2.17457    -3.92420    -2.12477
C      2.96191    -4.98662    -2.82498
O      0.95679    -3.94652    -2.04923
O      2.91377    -2.96680    -1.59920
H      2.34281    -2.30367    -1.15660
H      2.75028    -5.94648    -2.36061
H      2.63250    -5.04728    -3.85911
H      4.02142    -4.76530    -2.77488
C      0.01630    -1.24450    -0.25971
C     -0.83491    -0.27713     0.47596
O      1.23140    -1.13194    -0.35299
O     -0.63513    -2.25725    -0.81146
H     -0.01139    -2.87986    -1.27978
H     -0.64705     0.72355     0.10005
H     -1.88160    -0.53999     0.39304
H     -0.52097    -0.28120     1.51795
C      2.30420     2.15254     1.09932
C      3.16156     3.29928     1.51416
O      1.08984     2.13207     1.16748
O      3.00025     1.11734     0.63160
H      2.37696     0.42200     0.36845
H      2.87846     3.61240     2.51483
H      4.20936     3.02441     1.46793
H      2.95600     4.14679     0.86504
C     -4.34102    -2.14110    -0.39366
C     -5.75791    -2.63300    -0.48990
O     -4.01971    -1.08308     0.08688
O     -3.46393    -3.02000    -0.90495
H     -2.56442    -2.66239    -0.82375
H     -5.79865    -3.59671    -0.98486
H     -6.17089    -2.70255     0.51392
H     -6.34583    -1.89722    -1.03336
C     -0.12196     5.45119     1.89134
C     -1.11506     6.57082     2.04983
O      1.06166     5.56980     2.09409
O     -0.70708     4.31365     1.49421
H     -0.03008     3.61740     1.40341
H     -2.12875     6.20875     1.91937
H     -0.98839     7.01666     3.03350
H     -0.89344     7.33982     1.31226
