 40
-1146.274062592692
C      4.34583    -2.92685    -0.33007
C      5.02055    -4.26777    -0.20899
O      4.08290    -2.20160     0.59704
O      4.06719    -2.63404    -1.60867
H      3.64121    -1.75956    -1.64291
H      5.94987    -4.26263    -0.77566
H      5.22262    -4.47984     0.83486
H      4.38070    -5.04052    -0.63101
C      2.16794     0.80593    -2.52688
C      2.39644     1.33863    -3.91144
O      2.87343    -0.00267    -1.96533
O      1.08307     1.33883    -1.96703
H      0.96657     0.97827    -1.07066
H      2.51393     2.41863    -3.86697
H      3.28265     0.88278    -4.33625
H      1.52811     1.12385    -4.52953
C      1.12458     0.24504     1.85503
C      2.60181     0.30496     1.71104
O      0.56496    -0.00037     2.90783
O      0.45090     0.50116     0.73659
H     -0.52216     0.42365     0.89372
H      2.93149     1.26291     2.11177
H      3.05772    -0.48614     2.29410
H      2.89553     0.21271     0.67518
C     -4.54973     1.95570    -1.01824
C     -5.34369     2.16870    -2.27732
O     -4.42063     2.76241    -0.13264
O     -4.00237     0.72788    -0.98807
H     -3.45827     0.65114    -0.18472
H     -6.12092     1.41042    -2.35539
H     -5.78681     3.15779    -2.26305
H     -4.69467     2.06281    -3.14500
C     -2.70469     0.13715     2.27451
C     -4.18745     0.19870     2.44815
O     -2.17252     0.26885     1.17387
O     -2.03044    -0.05970     3.37258
H     -1.04711    -0.04893     3.19772
H     -4.47018    -0.10707     3.44960
H     -4.51086     1.21950     2.25219
H     -4.65359    -0.43505     1.69825
