 48
-1375.5361632838553
C      1.39273     1.21036    -2.93815
C      0.47413     2.07105    -3.75377
O      2.30077     1.62825    -2.25783
O      1.08403    -0.09059    -3.01973
H      1.67645    -0.57586    -2.42366
H     -0.33958     2.39980    -3.10696
H      1.01442     2.94591    -4.10092
H      0.06279     1.50534    -4.58385
C      0.96108    -2.65656     1.98019
C     -0.13100    -3.22800     2.81975
O      0.93703    -2.68419     0.74951
O      1.93311    -2.10625     2.65447
H      2.62522    -1.72442     2.04545
H     -0.41042    -4.20265     2.43138
H      0.18193    -3.28906     3.85629
H     -1.01259    -2.59865     2.72651
C     -0.21102     2.06576     0.74436
C      0.96860     1.14710     0.70974
O     -0.92329     2.23595    -0.23768
O     -0.41132     2.65782     1.89482
H     -1.21327     3.24357     1.86063
H      0.62222     0.16533     0.40526
H      1.65963     1.49891    -0.04751
H      1.44412     1.09731     1.68138
C     -3.30142     4.33679     0.82299
C     -4.52904     5.20069     0.85168
O     -2.57640     4.21288     1.79875
O     -3.09121     3.74077    -0.32960
H     -2.27510     3.17143    -0.29418
H     -5.21247     4.81316     1.60358
H     -4.24638     6.20545     1.15534
H     -5.00598     5.21382    -0.12140
C      3.63286    -0.86488    -0.12844
C      4.63913    -0.11745    -0.92707
O      3.68580    -0.98784     1.08069
O      2.64918    -1.39942    -0.84888
H      2.03011    -1.90538    -0.26532
H      5.50202     0.11202    -0.31212
H      4.92658    -0.70009    -1.79886
H      4.18442     0.80397    -1.29073
C     -2.44065    -3.94689    -0.16902
C     -3.48204    -4.43771    -1.13325
O     -2.66684    -3.61410     0.96842
O     -1.21475    -3.93086    -0.71518
H     -0.58692    -3.57066    -0.06748
H     -3.07690    -4.51113    -2.13639
H     -3.83146    -5.41411    -0.80259
H     -4.33289    -3.76168    -1.10853
