 80
-2292.584428495879
C      3.03155    -4.63134    -2.52208
C      3.05195    -6.04085    -3.02898
O      3.95025    -4.15706    -1.86990
O      1.94566    -3.95819    -2.84059
H      1.99779    -3.03761    -2.49721
H      3.20169    -6.71565    -2.19014
H      2.12794    -6.27225    -3.54575
H      3.90101    -6.16065    -3.69756
C     -6.32946    -0.09215    -2.42782
C     -7.69477    -0.05342    -3.04931
O     -5.38809     0.54106    -2.88937
O     -6.24381    -0.84034    -1.35201
H     -5.30735    -0.85983    -1.01610
H     -8.02831     0.98022    -3.09995
H     -7.62977    -0.42473    -4.06954
H     -8.39113    -0.65107    -2.47247
C     -0.61011    -0.48047     2.65079
C     -2.03263    -0.05041     2.76645
O     -0.17826    -1.11843     1.69751
O      0.15033    -0.11905     3.66316
H      1.07498    -0.40923     3.49664
H     -2.10770     1.00718     2.52121
H     -2.64576    -0.60780     2.06808
H     -2.38469    -0.18369     3.78711
C      5.02634     1.35854     2.79554
C      5.98437     2.51086     2.94034
O      5.29462     0.30039     2.27743
O      3.82191     1.64366     3.30657
H      3.26956     0.85166     3.22178
H      6.93871     2.25367     2.49465
H      5.57155     3.39477     2.45750
H      6.11838     2.74585     3.99466
C      2.87949    -1.95523     2.42429
C      4.18554    -2.66937     2.52285
O      2.61469    -0.93856     3.05931
O      2.01810    -2.51693     1.60768
H      1.15491    -2.02172     1.61956
H      4.05510    -3.53249     3.17531
H      4.47705    -3.01728     1.53827
H      4.93116    -1.99724     2.93019
C     -2.80292    -0.68696    -1.30868
C     -1.46090    -1.28928    -1.05978
O     -3.74711    -0.84465    -0.54778
O     -2.87485     0.05106    -2.39615
H     -3.81931     0.30224    -2.58777
H     -0.81804    -0.53361    -0.62237
H     -1.53761    -2.10752    -0.35557
H     -1.02041    -1.61998    -1.99284
C     -0.25937     3.40077     1.31889
C     -0.45726     3.98736     2.67924
O     -0.70004     3.88815     0.29538
O      0.44119     2.27196     1.32892
H      0.46523     1.91676     0.41677
H      0.13752     3.45763     3.41529
H     -0.18717     5.04097     2.65477
H     -1.51411     3.91493     2.92853
C      0.04489     1.48685    -2.47426
C     -0.81048     2.46100    -3.20842
O      0.18302     1.45048    -1.26437
O      0.66354     0.63132    -3.27717
H      1.21255     0.02406    -2.74789
H     -1.06077     3.28961    -2.55575
H     -0.30039     2.81221    -4.10199
H     -1.72588     1.95573    -3.50839
C      2.99035    -1.06844    -1.09159
C      2.85352     0.19959    -0.32547
O      2.16996    -1.42470    -1.93560
O      4.04806    -1.77324    -0.78931
H      4.03144    -2.66554    -1.23264
H      2.04963     0.06692     0.39657
H      3.77901     0.41435     0.19432
H      2.55142     0.99901    -0.99601
C     -3.77523     2.75609     0.55497
C     -5.20591     2.38930     0.30255
O     -3.24644     2.70455     1.64158
O     -3.14603     3.11573    -0.56626
H     -2.22600     3.37934    -0.34778
H     -5.71764     2.19107     1.23818
H     -5.71037     3.17871    -0.24940
H     -5.21736     1.49323    -0.31127
