 48
-1375.535887517108
C     -4.20992    -0.75077    -1.31096
C     -4.70495    -2.11299    -1.67883
O     -4.75443     0.00154    -0.53929
O     -3.05814    -0.43728    -1.93627
H     -2.83287     0.47747    -1.70680
H     -4.19960    -2.84712    -1.05370
H     -5.77291    -2.16717    -1.49038
H     -4.48111    -2.32667    -2.72077
C      2.48405    -0.27680     1.96568
C      1.46924    -0.03548     3.03457
O      2.35238    -1.12636     1.09590
O      3.51835     0.53032     2.03604
H      4.19369     0.29101     1.34664
H      0.72064    -0.81662     3.00915
H      1.95902    -0.00046     4.00573
H      1.00255     0.92990     2.85595
C      0.85662     1.84366    -0.90665
C      2.31918     1.67309    -1.17110
O      0.37703     1.71401     0.21125
O      0.14067     2.13168    -1.96745
H     -0.81567     2.21033    -1.73199
H      2.60007     2.09726    -2.12834
H      2.88245     2.12599    -0.36307
H      2.54835     0.61071    -1.16644
C     -2.83009     2.58758    -0.10604
C     -4.21384     3.05157     0.19441
O     -2.44816     2.32500    -1.24551
O     -2.04669     2.46853     0.93697
H     -1.13510     2.17231     0.67538
H     -4.51430     3.78891    -0.54500
H     -4.87388     2.19002     0.09981
H     -4.26376     3.45265     1.19974
C      5.13367    -0.96834    -0.70640
C      6.20711    -1.27342    -1.70761
O      5.25938    -0.08478     0.12883
O      4.05468    -1.71244    -0.81948
H      3.40065    -1.49564    -0.10493
H      7.09120    -1.62225    -1.17916
H      5.87005    -2.02434    -2.41290
H      6.47810    -0.35542    -2.22269
C     -1.66153    -2.43599     1.13385
C     -0.53647    -1.92085     0.28865
O     -2.69113    -2.92155     0.74047
O     -1.39817    -2.31242     2.45568
H     -2.17118    -2.65338     2.92212
H     -0.88086    -1.78944    -0.72763
H     -0.16591    -0.98422     0.69262
H      0.29397    -2.62390     0.31147
