 40
-1146.2862799709756
C      2.39556    -1.79580     0.09173
C      2.68057    -2.68917     1.26247
O      2.96837    -0.75488    -0.13227
O      1.41477    -2.28085    -0.67985
H      1.27657    -1.68111    -1.43238
H      1.98468    -2.44722     2.06363
H      2.53521    -3.72884     0.98225
H      3.69392    -2.51742     1.61317
C      2.15338     0.49707    -2.96248
C      3.60681     0.21285    -3.14318
O      1.30937    -0.39318    -2.86474
O      1.85450     1.76886    -2.89250
H      0.87408     1.91348    -2.79542
H      4.12472     1.10388    -3.47920
H      3.99775    -0.10299    -2.17683
H      3.73100    -0.60813    -3.84296
C     -0.13713     0.89634     1.52132
C      0.92700     1.53593     0.69271
O     -1.30073     1.27207     1.50213
O      0.28601    -0.12042     2.24096
H     -0.45002    -0.49988     2.79173
H      1.86224     1.60575     1.23459
H      1.10712     0.89936    -0.16735
H      0.59526     2.50685     0.34925
C     -1.56877     1.26969    -2.26961
C     -2.97763     1.58607    -1.87760
O     -0.74115     2.12915    -2.52663
O     -1.29800    -0.02229    -2.28007
H     -0.35860    -0.17390    -2.53730
H     -3.65779     0.85984    -2.31283
H     -3.04922     1.51581    -0.79329
H     -3.22617     2.59424    -2.18966
C     -2.83097    -0.72001     3.71234
C     -3.88786    -1.34876     4.57376
O     -1.67615    -1.12175     3.70875
O     -3.25617     0.28381     2.97900
H     -2.51773     0.66201     2.42966
H     -4.84909    -0.87996     4.39706
H     -3.93455    -2.41273     4.35602
H     -3.60021    -1.24163     5.61694
