 80
-2292.5767925425785
C      3.41812     1.86614     3.31926
C      3.80384     2.03535     4.74728
O      3.27387     2.80700     2.54275
O      3.24046     0.62331     2.94489
H      2.82957     0.58494     2.06218
H      4.47849     2.88039     4.84252
H      2.89710     2.25896     5.30799
H      4.25463     1.12695     5.13089
C      0.00169     2.12739    -1.15289
C      0.23106     3.55313    -0.78452
O     -0.43590     1.28229    -0.38904
O      0.34658     1.83286    -2.39448
H      0.03905     0.92577    -2.60676
H      0.41200     4.15629    -1.66631
H     -0.62320     3.91995    -0.22121
H      1.09311     3.59562    -0.12309
C     -1.94694    -2.88134    -0.45694
C     -2.10207    -1.45354    -0.06271
O     -2.21994    -3.28205    -1.59177
O     -1.51438    -3.67766     0.48250
H     -1.47235    -4.63136     0.18696
H     -1.24600    -0.87866    -0.39478
H     -2.98233    -1.03587    -0.54029
H     -2.18110    -1.38501     1.01462
C     -3.57888     2.77250    -0.05258
C     -5.01858     3.12172    -0.31521
O     -2.74505     3.54748     0.34881
O     -3.31926     1.48753    -0.32729
H     -2.40553     1.28480    -0.06207
H     -5.66260     2.52738     0.33072
H     -5.18025     4.17744    -0.12726
H     -5.27342     2.88039    -1.34557
C     -1.27102    -6.54488    -1.46545
C     -0.87999    -7.93372    -1.86890
O     -1.28916    -6.18394    -0.29886
O     -1.59088    -5.76212    -2.47849
H     -1.85076    -4.86819    -2.16383
H      0.05820    -8.19407    -1.38706
H     -1.63622    -8.62540    -1.50567
H     -0.79497    -8.00523    -2.94688
C     -0.20708     0.16367     2.75940
C      0.25358    -0.41264     4.06395
O     -1.35829     0.33814     2.44874
O      0.81684     0.49239     1.94807
H      0.44323     0.76693     1.08818
H     -0.58965    -0.85335     4.58744
H      1.03059    -1.15579     3.89981
H      0.67946     0.39123     4.66355
C      0.13469     3.49124     3.52404
C     -1.30487     3.89795     3.60431
O      0.70527     2.86062     4.38434
O      0.72426     3.87649     2.38450
H      1.65216     3.58329     2.38984
H     -1.90406     2.99849     3.73155
H     -1.44861     4.53175     4.47843
H     -1.60572     4.41230     2.69787
C     -1.89491    -0.42897    -3.63983
C     -2.19026     0.48620    -4.78847
O     -0.83967    -0.44836    -3.03351
O     -2.89513    -1.24103    -3.35211
H     -2.62341    -1.87864    -2.65648
H     -3.25222     0.70747    -4.83822
H     -1.60998     1.39750    -4.69101
H     -1.89986    -0.01334    -5.71171
C      3.56201     1.43547    -0.61846
C      3.96112     1.32024    -2.05250
O      3.05921     0.53523     0.03521
O      3.78403     2.64151    -0.11268
H      3.56941     2.67231     0.84631
H      3.18476     1.78756    -2.65649
H      4.89729     1.84781    -2.21964
H      4.03351     0.27576    -2.32665
C      1.63056    -1.97996    -1.87813
C      0.83839    -3.14072    -2.38789
O      2.63283    -1.56252    -2.39751
O      1.08463    -1.43665    -0.77293
H      1.68154    -0.74510    -0.43293
H     -0.07968    -2.76745    -2.82678
H      1.40592    -3.68203    -3.13544
H      0.57503    -3.80570    -1.57305
