 64
-1834.065152217989
C     -3.61553     0.54805    -2.64436
C     -3.30398     1.19554    -3.95623
O     -4.00907     1.16791    -1.67122
O     -3.42364    -0.75743    -2.64409
H     -3.50778    -1.12058    -1.73157
H     -3.69445     2.20642    -3.97084
H     -2.22246     1.22159    -4.07898
H     -3.72047     0.60712    -4.76954
C      3.52270     3.48197     1.33283
C      3.25760     4.56168     2.32893
O      3.21973     3.58837     0.14184
O      4.09045     2.41168     1.81927
H      4.29086     1.73536     1.11106
H      3.78178     4.35218     3.25375
H      3.55540     5.51907     1.90970
H      2.18355     4.59333     2.50435
C      0.40817    -0.62319    -1.65598
C     -0.20569    -1.92114    -2.08165
O      1.48748    -0.52804    -1.12776
O     -0.37460     0.43677    -1.92137
H      0.02505     1.22249    -1.49840
H     -1.00203    -2.18783    -1.38588
H     -0.64733    -1.82973    -3.07050
H      0.55122    -2.69870    -2.07462
C      4.36828     0.69280    -1.20485
C      4.53387    -0.46179    -2.13614
O      4.59793     0.62724    -0.00756
O      3.94750     1.79891    -1.79511
H      3.79284     2.49763    -1.12510
H      3.56882    -0.95702    -2.21737
H      4.83111    -0.10811    -3.11848
H      5.25679    -1.15983    -1.72771
C     -3.72974    -1.04001     0.84760
C     -3.61814    -1.58162     2.23409
O     -3.48730    -1.72604    -0.14824
O     -4.09390     0.20849     0.77844
H     -4.10957     0.53747    -0.16174
H     -3.91556    -2.62582     2.24092
H     -2.57087    -1.53523     2.52596
H     -4.22251    -0.99998     2.92306
C      0.42891    -1.01433     1.93610
C      1.58165    -0.06186     2.03709
O     -0.62545    -0.76751     1.38788
O      0.68859    -2.18229     2.51418
H     -0.07672    -2.77938     2.38650
H      2.43350    -0.45517     1.48667
H      1.30847     0.89800     1.61779
H      1.88612     0.07904     3.07163
C     -0.03345     2.91737     0.61153
C     -1.36888     2.25440     0.57517
O      0.36681     3.62150     1.50093
O      0.72759     2.61040    -0.46707
H      1.60778     3.02454    -0.35108
H     -1.86433     2.43767    -0.37457
H     -1.22541     1.18127     0.68156
H     -1.98718     2.61827     1.38803
C     -1.52061    -4.56388     1.08833
C     -0.91842    -5.93078     0.97592
O     -1.35689    -3.83340     2.04666
O     -2.27057    -4.23048     0.05180
H     -2.65022    -3.33513     0.17765
H     -1.32712    -6.55673     1.76667
H     -1.13527    -6.36558     0.00769
H      0.15510    -5.86851     1.13576
