 80
-2292.579923031699
C      4.46046    -0.43811     3.37575
C      4.84113    -1.08269     4.66983
O      3.52462     0.32936     3.23713
O      5.23548    -0.81068     2.37397
H      4.97498    -0.33350     1.55974
H      5.90985    -1.27014     4.69559
H      4.53373    -0.45955     5.50389
H      4.31916    -2.03643     4.73297
C     -2.06305     2.77565     0.84039
C     -3.53108     2.52665     0.80473
O     -1.23814     1.87705     1.01075
O     -1.71273     4.02019     0.66241
H     -0.72119     4.11827     0.66487
H     -3.79564     1.77233     1.53823
H     -4.08247     3.44645     0.97223
H     -3.76854     2.11011    -0.17167
C     -1.54305    -2.32718    -2.12015
C     -2.74277    -1.66592    -2.71486
O     -1.61078    -3.18498    -1.25351
O     -0.40022    -1.88823    -2.60958
H      0.35460    -2.34962    -2.16204
H     -2.53189    -1.37417    -3.73644
H     -3.59856    -2.33079    -2.66847
H     -2.97720    -0.77574    -2.13467
C      1.10619    -1.93195     3.25707
C     -0.18608    -2.64600     3.52525
O      2.14529    -2.50584     3.01358
O      0.97632    -0.60824     3.30908
H      1.85468    -0.18890     3.21080
H     -1.01335    -1.95110     3.46433
H     -0.29991    -3.45205     2.80585
H     -0.14377    -3.07781     4.52692
C      1.47382    -3.81905    -0.31428
C      2.67417    -4.36757     0.38979
O      1.55196    -3.08700    -1.29069
O      0.32519    -4.19083     0.21189
H     -0.43107    -3.81753    -0.31177
H      2.77340    -3.87048     1.35488
H      2.54173    -5.43171     0.57009
H      3.56193    -4.18510    -0.20656
C     -3.28850    -1.07435     1.11353
C     -3.79563    -2.39416     1.61439
O     -3.66318    -0.54247     0.09748
O     -2.34786    -0.55425     1.91296
H     -2.00300     0.26695     1.51549
H     -3.59402    -2.49928     2.67511
H     -4.86006    -2.47869     1.41170
H     -3.27769    -3.18703     1.07647
C     -4.50397     1.27169    -4.37250
C     -5.87746     1.11495    -4.95743
O     -3.49382     1.06570    -5.02887
O     -4.49186     1.63961    -3.10939
H     -3.56062     1.78097    -2.79436
H     -5.93081     0.17401    -5.49839
H     -6.62752     1.15315    -4.17570
H     -6.04606     1.91658    -5.67335
C      1.70591     3.45049     1.03007
C      3.09961     3.78593     1.45090
O      0.90754     4.27683     0.62284
O      1.42072     2.16523     1.11442
H      0.44572     2.02167     1.05622
H      3.20894     4.86094     1.55057
H      3.33138     3.28252     2.38519
H      3.79029     3.42051     0.69374
C      3.69680     0.49757    -0.52832
C      2.61763    -0.45790    -0.14299
O      4.70930     0.70738     0.10816
O      3.46828     1.16457    -1.66843
H      4.24398     1.71564    -1.83877
H      3.04487    -1.42087     0.11935
H      2.11290    -0.06734     0.73412
H      1.91625    -0.60576    -0.95357
C     -1.00228     1.62073    -2.92550
C      0.34662     1.69505    -2.28790
O     -2.01839     1.98346    -2.35151
O     -1.00107     1.14069    -4.14295
H     -1.92078     1.13189    -4.51592
H      1.09237     1.18423    -2.88290
H      0.61910     2.73969    -2.15339
H      0.29627     1.25690    -1.29649
