 24
-687.7612566905542
C      0.87168    -2.61737     0.48904
C      0.66095    -4.06133     0.84310
O      0.85904    -1.73892     1.33926
O      1.05253    -2.39348    -0.79211
H      1.18752    -1.42003    -0.96845
H      1.36795    -4.34108     1.61949
H     -0.33908    -4.17560     1.25517
H      0.78170    -4.68797    -0.03269
C      1.51975     1.04894    -0.41635
C      1.82793     2.46282    -0.77183
O      1.36395     0.16594    -1.24795
O      1.41239     0.83744     0.87945
H      1.23908    -0.12133     1.05659
H      2.45773     2.90818    -0.00835
H      2.29891     2.50169    -1.74830
H      0.88521     3.00583    -0.80925
C     -2.22365     1.63043    -0.17315
C     -2.06626     0.14333    -0.06692
O     -1.40484     2.39347    -0.61884
O     -3.41131     2.05685     0.30148
H     -3.41851     3.01660     0.20095
H     -1.29286    -0.17599    -0.75522
H     -1.75287    -0.11391     0.94345
H     -2.99873    -0.37350    -0.27513
