 72
-2063.329961920551
C      5.15909     1.52802     1.68287
C      6.55404     2.03258     1.88729
O      4.60326     0.79158     2.48549
O      4.58208     1.97293     0.59013
H      3.65111     1.65827     0.54100
H      6.52230     2.82284     2.63595
H      7.18277     1.23424     2.26986
H      6.94566     2.43179     0.95898
C     -0.39269     4.19830     0.06402
C     -1.29300     4.70591    -1.01132
O     -0.77051     3.38998     0.91242
O      0.82207     4.67341     0.03416
H      1.36290     4.35006     0.80400
H     -0.80084     5.47888    -1.59203
H     -1.56991     3.86823    -1.64911
H     -2.21098     5.08525    -0.56760
C      1.79938     3.29163     3.07989
C      2.60059     2.98883     4.30340
O      2.20580     3.99798     2.17535
O      0.62293     2.69907     3.06569
H      0.10890     2.96872     2.26622
H      3.50504     3.58653     4.29753
H      2.01803     3.18952     5.19980
H      2.85920     1.93226     4.29319
C     -3.63959    -4.22127    -0.20261
C     -5.05132    -4.20251    -0.69177
O     -2.89432    -5.17411    -0.37598
O     -3.27197    -3.11970     0.41461
H     -2.29974    -3.13520     0.59285
H     -5.69592    -3.72526     0.04045
H     -5.07752    -3.61050    -1.60532
H     -5.38095    -5.21297    -0.90507
C     -3.09940     1.12257    -0.77551
C     -3.69153    -0.23079    -0.98018
O     -2.84057     1.90610    -1.66337
O     -2.83681     1.39838     0.51113
H     -2.34931     2.23607     0.55258
H     -2.90277    -0.90901    -1.30198
H     -4.12905    -0.61683    -0.06843
H     -4.42095    -0.19618    -1.78179
C      0.11008    -4.00892     0.31308
C      1.58965    -3.79131     0.26429
O     -0.66916    -3.17858     0.75747
O     -0.26774    -5.16273    -0.18383
H     -1.25773    -5.21510    -0.19974
H      1.87023    -3.04331     0.99781
H      2.11983    -4.72317     0.43837
H      1.84006    -3.42782    -0.73146
C      0.00204     0.86574    -2.47049
C     -0.52752     1.33615    -3.78544
O     -0.10914    -0.26917    -2.04644
O      0.60399     1.81869    -1.76650
H      0.97952     1.44080    -0.94904
H     -0.65761     0.48853    -4.45006
H     -1.49856     1.79607    -3.61160
H      0.13893     2.07590    -4.22088
C     -1.65957    -3.37052    -3.00264
C     -1.66966    -4.74288    -3.60627
O     -2.64172    -2.69291    -2.82463
O     -0.42193    -2.98314    -2.66287
H     -0.43911    -2.05705    -2.36651
H     -2.60720    -4.89588    -4.13107
H     -0.82647    -4.87399    -4.27976
H     -1.58679    -5.47465    -2.80459
C      1.55822     0.24369     1.29725
C      0.15818    -0.23539     1.16754
O      2.07332     1.02821     0.50336
O      2.20393    -0.22500     2.33250
H      3.13330     0.13149     2.36380
H     -0.01504    -0.58434     0.15272
H     -0.04698    -1.03143     1.87139
H     -0.51478     0.59940     1.35016
