 80
-2292.5820297588198
C      3.62424     2.52439     2.71783
C      3.92156     2.92075     4.12587
O      3.12474     3.28755     1.89568
O      3.94210     1.28430     2.42209
H      3.79320     1.08735     1.46885
H      4.44246     3.87460     4.12622
H      2.97179     3.05539     4.64259
H      4.51008     2.15302     4.61480
C     -0.94078     2.38535    -1.36893
C     -0.94736     3.85803    -1.13320
O     -1.18959     1.56040    -0.50221
O     -0.62013     2.03969    -2.60262
H     -0.67509     1.06167    -2.71782
H     -0.07358     4.11429    -0.53563
H     -0.92176     4.39152    -2.07835
H     -1.82892     4.11710    -0.55368
C     -2.26423    -2.75957    -0.39454
C     -2.63692    -1.36274    -0.04280
O     -2.19868    -3.15855    -1.55885
O     -2.01386    -3.53663     0.62914
H     -1.80971    -4.46381     0.33743
H     -1.83494    -0.68699    -0.32199
H     -3.51510    -1.07646    -0.61162
H     -2.80882    -1.28701     1.02189
C     -4.22201     2.80751     0.86884
C     -5.70330     3.06139     0.94851
O     -3.36950     3.64307     1.05655
O     -3.95566     1.53504     0.56241
H     -2.99067     1.41656     0.54279
H     -5.88332     4.10250     1.18914
H     -6.17008     2.80867    -0.00183
H     -6.14216     2.41971     1.71034
C     -1.38993    -6.38898    -1.33888
C     -1.00032    -7.78413    -1.72599
O     -1.38784    -5.99296    -0.18393
O     -1.72061    -5.62701    -2.36531
H     -1.96590    -4.72083    -2.05946
H     -0.70130    -8.33621    -0.84352
H     -1.84122    -8.27604    -2.21003
H     -0.18442    -7.74621    -2.44406
C      0.07693     0.13023     2.20883
C      0.95619    -0.57420     3.19869
O     -1.12802     0.13051     2.22845
O      0.77384     0.78338     1.26624
H      0.11601     1.17393     0.66072
H      1.54610    -1.33940     2.69903
H      1.64077     0.13844     3.65450
H      0.33794    -1.03186     3.96695
C     -0.02578     3.47785     3.40390
C     -1.50307     3.57067     3.62447
O      0.75844     3.00642     4.19388
O      0.34543     3.96506     2.21070
H      1.29788     3.82020     2.09743
H     -1.89710     4.49108     3.20711
H     -1.98616     2.74911     3.09973
H     -1.71617     3.49559     4.68566
C     -0.20444    -1.34412    -3.81450
C      0.92279    -0.99559    -4.72911
O     -0.71947    -0.57545    -3.02197
O     -0.59889    -2.60509    -3.92601
H     -1.27609    -2.78401    -3.25318
H      0.93833     0.07577    -4.89849
H      1.85154    -1.28879    -4.24039
H      0.83409    -1.53549    -5.66758
C      3.03472     1.55207    -1.00591
C      2.74973     1.14471    -2.41415
O      3.63687     0.83562    -0.21496
O      2.59158     2.74809    -0.69434
H      2.79524     2.96710     0.24555
H      1.83362     0.56033    -2.41935
H      2.62146     2.01607    -3.04557
H      3.54393     0.49768    -2.76833
C      2.18811    -2.42424    -0.92629
C      1.43238    -3.69961    -0.69683
O      2.33177    -1.91308    -2.01180
O      2.68907    -1.90846     0.19809
H      3.11439    -1.06347    -0.01520
H      0.93521    -3.68920     0.26577
H      0.70811    -3.81788    -1.49169
H      2.11723    -4.54415    -0.72015
