 56
-1604.8096218239245
C      2.03126     1.30618    -2.00807
C      1.15108     2.24678    -2.76480
O      2.11561     1.25641    -0.80368
O      2.73816     0.50186    -2.81769
H      3.25772    -0.09285    -2.25411
H      0.35175     1.67966    -3.23865
H      0.71715     2.97103    -2.08328
H      1.72051     2.74988    -3.54393
C     -0.41904    -1.69233    -3.39952
C      0.59640    -2.09186    -4.42005
O     -0.46033    -0.58121    -2.89253
O     -1.26345    -2.64896    -3.09019
H     -1.87158    -2.32283    -2.38006
H      1.28383    -1.27162    -4.58081
H      1.12931    -2.96820    -4.05954
H      0.09366    -2.35888    -5.34877
C     -0.66972     1.33292     2.13988
C      0.38054     0.41483     1.61455
O     -1.56827     0.95812     2.88340
O     -0.56009     2.57380     1.72288
H     -4.81026     5.11029     3.66468
H      0.19295     0.26090     0.55943
H      1.36251     0.86568     1.69335
H      0.34244    -0.52877     2.14531
C      1.08419    -3.29908     0.06128
C     -0.11892    -4.18891     0.00046
O      1.67217    -3.03659     1.09547
O      1.44351    -2.81149    -1.11607
H      2.23811    -2.22937    -1.02624
H     -1.01194    -3.57849     0.11479
H     -0.16635    -4.68308    -0.96343
H     -0.08345    -4.91046     0.81051
C     -2.79874    -0.60708    -0.64403
C     -3.87282    -0.17172     0.30653
O     -2.77079    -1.72253    -1.13896
O     -1.87631     0.30840    -0.87610
H     -1.27369    -0.00312    -1.60073
H     -4.72801    -0.83511     0.22227
H     -3.48002    -0.21948     1.31930
H     -4.15765     0.85604     0.10295
C     -3.19902     3.73421     3.73668
C     -4.15284     4.67665     4.41407
O     -2.44880     4.10436     2.84629
O     -3.25081     2.50059     4.18756
H     -2.60806     1.91528     3.69939
H     -1.25006     3.15360     2.13957
H     -4.72785     4.15526     5.17035
H     -3.58504     5.48985     4.85930
C      4.04482    -0.85527     0.23474
C      5.02093     0.27402     0.29708
O      3.69795    -1.37207    -0.82613
O      3.57420    -1.22748     1.39485
H      2.90610    -1.95283     1.28715
H      5.46773     0.33931     1.28370
H      5.77705     0.14691    -0.47131
H      4.46463     1.18740     0.09008
