 56
-1604.8106629315935
C     -0.13870     1.91263    -2.58938
C     -0.91294     3.17631    -2.36739
O     -0.49501     0.99918    -3.29835
O      1.01075     1.91049    -1.90653
H      1.43390     1.03526    -1.96045
H     -0.83665     3.47490    -1.32772
H     -0.49174     3.96679    -2.98977
H     -1.94740     3.00771    -2.64136
C     -3.31536    -0.20675    -2.43709
C     -3.56153     0.19442    -3.85465
O     -3.03098    -1.34589    -2.10681
O     -3.41360     0.78741    -1.56675
H     -3.33792     0.43103    -0.64968
H     -3.78872    -0.68571    -4.44693
H     -4.37020     0.91773    -3.90495
H     -2.65286     0.65813    -4.23465
C      1.11237     0.30923     2.50313
C      2.45109    -0.34886     2.62436
O      0.53516     0.40325     1.43005
O      0.61666     0.76015     3.62803
H     -3.78852     3.24645     2.69257
H      2.31288    -1.42820     2.57665
H      3.05021    -0.06495     1.76561
H      2.94657    -0.08740     3.55299
C     -2.71619    -1.29934     1.15770
C     -2.39732    -1.65446     2.57846
O     -3.33618    -0.29176     0.86105
O     -2.25469    -2.16795     0.28519
H     -2.48417    -1.89842    -0.64501
H     -1.32048    -1.75496     2.68942
H     -2.77237    -0.87832     3.23387
H     -2.85181    -2.61312     2.82356
C      1.63400    -1.52845    -1.01270
C      0.25928    -1.50676    -1.58334
O      2.02429    -2.40372    -0.26111
O      2.40777    -0.51752    -1.37866
H      3.32474    -0.61908    -1.00010
H      0.29928    -1.33550    -2.65254
H     -0.25613    -2.42558    -1.33373
H     -0.28537    -0.67248    -1.14996
C     -2.00390     2.36519     1.96204
C     -3.27959     3.11150     1.74539
O     -1.68976     1.88176     3.03695
O     -1.24895     2.27454     0.88392
H     -0.54092     1.60095     1.01728
H     -0.25285     1.20925     3.45438
H     -3.07213     4.07132     1.27987
H     -3.90622     2.53357     1.06896
C      5.19626    -1.77736     0.30875
C      6.62456    -1.87609     0.75471
O      4.78471    -0.82034    -0.33309
O      4.43564    -2.77997     0.68189
H      3.51721    -2.67272     0.31424
H      7.27085    -1.86538    -0.11944
H      6.86903    -0.99937     1.34951
H      6.77864    -2.78116     1.33021
