 64
-1834.0707873189015
C     -4.01865    -0.77496    -1.05164
C     -4.34021    -1.34145    -2.39960
O     -4.05461    -1.44504    -0.03081
O     -3.69625     0.50115    -1.07197
H     -3.37090     0.79344    -0.18200
H     -3.40313    -1.62143    -2.87920
H     -4.95399    -2.22888    -2.29086
H     -4.83358    -0.59658    -3.01594
C      2.36163     2.10958     2.71873
C      2.46759     3.09832     3.82858
O      2.42285     2.41833     1.53282
O      2.20446     0.86914     3.11169
H      2.03035     0.28160     2.35031
H      2.49901     2.58678     4.78338
H      3.35793     3.70587     3.68439
H      1.60265     3.75661     3.77520
C     -0.24851    -3.68126    -3.83946
C     -0.44178    -4.88767    -4.71327
O     -1.09624    -3.31783    -3.03566
O      0.89458    -3.06167    -4.02600
H      0.97709    -2.28062    -3.42244
H     -0.78407    -5.71990    -4.10445
H     -1.22028    -4.67089    -5.44181
H      0.48111    -5.13759    -5.22366
C      3.66499     0.20459    -0.52371
C      4.26338    -0.54652    -1.66981
O      3.20239    -0.33247     0.46937
O      3.67841     1.51474    -0.68736
H      3.26227     1.93733     0.09285
H      4.94332     0.09351    -2.22181
H      4.77172    -1.43382    -1.30665
H      3.45406    -0.86228    -2.32657
C     -2.41522     0.43404     2.15597
C     -1.59017     0.83326     3.33669
O     -2.67051     1.19943     1.23678
O     -2.82252    -0.81684     2.18713
H     -3.33182    -1.04519     1.36412
H     -2.00370     0.39130     4.24152
H     -0.58301     0.44955     3.18702
H     -1.56366     1.91504     3.40946
C      0.59290    -2.05319     1.23028
C     -0.49386    -3.06245     1.45262
O      0.52301    -0.90041     1.60732
O      1.63280    -2.53793     0.56663
H      2.29851    -1.82881     0.48096
H     -0.12376    -4.07489     1.32682
H     -0.92288    -2.92472     2.43938
H     -1.28507    -2.86386     0.73006
C     -0.44375     4.21285     1.19157
C     -1.71748     4.78370     0.63988
O     -0.20201     4.10887     2.37119
O      0.38749     3.80291     0.22577
H      1.15110     3.36442     0.63839
H     -2.45546     3.98349     0.58124
H     -2.09201     5.54922     1.31256
H     -1.55441     5.18344    -0.35661
C      0.17972    -0.52249    -1.72493
C      0.22196     0.80960    -1.06339
O      1.09162    -0.96678    -2.40372
O     -0.92904    -1.19710    -1.49102
H     -0.96638    -2.03048    -2.02791
H      0.83416     1.48199    -1.65458
H     -0.77839     1.20624    -0.93782
H      0.67322     0.69173    -0.07945
