 80
-2292.5918627322717
C      4.84024    -1.72886    -1.67586
C      6.21846    -2.22558    -1.36423
O      3.87525    -2.46381    -1.81492
O      4.77256    -0.41590    -1.76588
H      3.83586    -0.13745    -1.84643
H      6.40865    -2.04877    -0.30576
H      6.28550    -3.28795    -1.57095
H      6.95909    -1.67289    -1.93612
C     -4.20029     1.42776    -2.45895
C     -4.72462     2.82338    -2.58720
O     -4.50601     0.70061    -1.52270
O     -3.39359     1.05758    -3.42643
H     -3.09852     0.11925    -3.28497
H     -4.42944     3.25540    -3.53718
H     -5.80683     2.80455    -2.49097
H     -4.33596     3.41889    -1.76484
C     -1.53770    -2.03986     2.24765
C     -2.85920    -1.57873     2.75745
O     -1.37000    -3.10544     1.67820
O     -0.55041    -1.18895     2.47137
H      0.29259    -1.52882     2.11724
H     -2.99620    -1.96608     3.76775
H     -2.89274    -0.49680     2.77801
H     -3.64365    -1.96710     2.11690
C      3.20281    -0.11484     1.27814
C      4.11413     1.07016     1.24833
O      1.99689    -0.04273     1.24598
O      3.84938    -1.28211     1.32207
H      3.17761    -1.97744     1.46067
H      5.12568     0.80145     1.54096
H      4.12787     1.45156     0.22725
H      3.71898     1.85277     1.88715
C      1.65264    -4.03850     1.11877
C      2.87923    -4.81290     0.73967
O      1.69275    -2.99370     1.75373
O      0.53842    -4.58709     0.69647
H     -0.23577    -4.05337     0.99918
H      3.67270    -4.61315     1.45287
H      2.66226    -5.87664     0.70162
H      3.20271    -4.48892    -0.24715
C     -2.47365    -1.86549    -1.79636
C     -1.65297    -3.08436    -1.51448
O     -2.62932    -1.41390    -2.91888
O     -3.01035    -1.31962    -0.72198
H     -3.58397    -0.55373    -0.97924
H     -2.18632    -3.76126    -0.85336
H     -1.39058    -3.58018    -2.44242
H     -0.74609    -2.78813    -0.99608
C      0.04713     2.80676     2.01992
C     -0.39403     2.30141     3.35260
O     -0.64185     2.78072     1.01327
O      1.28158     3.27415     2.02266
H      1.55394     3.47297     1.09823
H     -1.46284     2.12499     3.34417
H      0.11642     1.36036     3.55255
H     -0.11580     3.00818     4.13248
C      1.11461     3.67415    -1.44212
C      0.27567     4.87586    -1.74280
O      1.91850     3.61667    -0.52765
O      0.89059     2.65578    -2.25314
H      1.41992     1.88206    -1.96759
H      0.86032     5.78138    -1.60670
H     -0.12378     4.82240    -2.74966
H     -0.55103     4.89290    -1.03275
C      1.29313    -0.47418    -1.29737
C     -0.01355     0.06942    -0.82962
O      2.17335     0.24628    -1.75765
O      1.41707    -1.78081    -1.22334
H      2.32883    -2.06858    -1.49565
H      0.13341     1.01160    -0.31704
H     -0.64480     0.22763    -1.70454
H     -0.48912    -0.63143    -0.15548
C     -4.00279     2.29688     1.39666
C     -5.47541     2.43017     1.15286
O     -3.51790     1.53207     2.19651
O     -3.28970     3.11705     0.62142
H     -2.33443     2.97002     0.77458
H     -5.76967     1.67983     0.42144
H     -6.01570     2.24700     2.07714
H     -5.70064     3.41531     0.75867
