 64
-1834.065567889321
C     -4.63185    -1.84118     3.07962
C     -5.37705    -2.79064     3.97261
O     -3.49064    -2.06921     2.70084
O     -5.30586    -0.76297     2.74915
H     -4.75363    -0.15555     2.18717
H     -4.81040    -2.92860     4.89038
H     -6.36668    -2.40710     4.19192
H     -5.44356    -3.75922     3.48254
C      1.80581    -0.78266     2.90036
C      1.10933    -1.06639     4.18957
O      1.41685     0.07222     2.10249
O      2.85668    -1.52603     2.68081
H      3.26495    -1.31660     1.79623
H      0.07555    -1.33245     3.98182
H      1.61771    -1.86060     4.72586
H      1.07335    -0.15795     4.78465
C      1.36089     2.69711    -3.06485
C      0.42407     3.52078    -3.88879
O      2.45571     2.31216    -3.43319
O      0.87439     2.39373    -1.87394
H      1.48793     1.79692    -1.41658
H     -0.11828     4.22030    -3.26032
H      0.97446     4.03825    -4.66624
H     -0.29423     2.84462    -4.35021
C      3.50274    -0.20721    -0.50663
C      4.16314    -0.03799    -1.82588
O      3.85720    -1.00957     0.33194
O      2.45337     0.59266    -0.30886
H      2.05763     0.41741     0.58050
H      5.19988    -0.35366    -1.76121
H      3.64628    -0.68498    -2.53182
H      4.07985     0.98779    -2.16500
C     -2.82280     0.48193     0.65915
C     -2.20938     1.29598    -0.43290
O     -3.82087     0.83035     1.27010
O     -2.18745    -0.64433     0.91447
H     -2.66643    -1.18226     1.60380
H     -2.92832     2.01630    -0.81309
H     -1.35159     1.82246    -0.01783
H     -1.84680     0.64196    -1.21873
C      0.77805    -1.86258    -1.71008
C      0.43776    -2.54275    -0.41706
O      1.76335    -2.11557    -2.36611
O     -0.10377    -0.92115    -2.04852
H      0.13901    -0.54234    -2.91955
H      0.46926    -3.62059    -0.55339
H      1.19568    -2.28301     0.31650
H     -0.53214    -2.23103    -0.04898
C     -1.50538     1.72218     3.87965
C     -2.51960     2.81293     4.05628
O     -1.39384     0.75440     4.58924
O     -0.73803     1.92884     2.79590
H     -0.08454     1.21557     2.74030
H     -3.29764     2.69100     3.30544
H     -2.95863     2.73634     5.04556
H     -2.05852     3.78852     3.91765
C      1.57894    -0.45935    -5.02523
C      1.55999    -1.68532    -5.87901
O      0.59532    -0.00497    -4.46666
O      2.78739     0.06565    -4.91799
H      2.77413     0.84113    -4.31636
H      0.57998    -1.81992    -6.32551
H      2.33422    -1.62290    -6.63652
H      1.77171    -2.53791    -5.23507
