 32
-917.0168272883526
C      1.80888    -1.29427    -1.54465
C      3.02479    -2.16284    -1.46120
O      1.81985    -0.10791    -1.77685
O      0.68290    -1.98820    -1.32433
H     -0.07284    -1.38335    -1.39478
H      3.33653    -2.21592    -0.41979
H      2.79115    -3.16443    -1.80921
H      3.82573    -1.72113    -2.04532
C     -1.16787     1.25712    -1.64333
C     -0.46627     1.83008    -2.83000
O     -1.37423     0.05276    -1.50955
O     -1.55540     2.14321    -0.76132
H     -2.01130     1.71357     0.00901
H     -0.43342     2.91109    -2.76154
H      0.53882     1.41540    -2.87181
H     -0.99159     1.51734    -3.72955
C      2.25185     0.26248     1.72213
C      1.00714     0.79514     1.08628
O      2.70435    -0.84388     1.56765
O      2.86043     1.17464     2.51015
H      3.65495     0.74998     2.85738
H      0.45776    -0.02719     0.65408
H      0.38980     1.31610     1.81206
H      1.27174     1.48734     0.29249
C     -2.90822    -0.22243     1.47225
C     -3.56904    -0.80575     2.68672
O     -2.65949     0.96793     1.36091
O     -2.62270    -1.11597     0.54604
H     -2.18788    -0.68968    -0.23055
H     -3.74096    -0.02559     3.41761
H     -4.51138    -1.26567     2.39808
H     -2.93648    -1.58518     3.10479
