 80
-2292.588357106297
C      4.25611    -3.06029     3.25893
C      4.12834    -3.65551     4.63088
O      4.40968    -3.73267     2.25091
O      4.18640    -1.74494     3.24912
H      4.26293    -1.40503     2.32560
H      3.19395    -3.32677     5.08006
H      4.15438    -4.73650     4.56693
H      4.94113    -3.29603     5.25805
C     -5.75024     1.00540    -0.17642
C     -6.38262     0.48686    -1.42796
O     -5.96865     2.12467     0.26358
O     -4.92798     0.15315     0.39472
H     -4.52154     0.55000     1.20332
H     -5.63485     0.51077    -2.21764
H     -6.69419    -0.54411    -1.28700
H     -7.22323     1.11491    -1.69952
C     -0.79855    -1.62078    -1.25876
C     -1.94724    -0.69380    -1.05788
O     -0.47441    -2.45622    -0.43209
O     -0.14737    -1.46573    -2.40009
H      0.51290    -2.20300    -2.51195
H     -2.40694    -0.90359    -0.10349
H     -1.62287     0.33907    -1.10612
H     -2.67480    -0.84218    -1.85202
C      3.16084     2.18180    -0.21287
C      4.13132     2.40352     0.90072
O      3.50263     2.09475    -1.38104
O      1.90485     2.06410     0.17788
H      1.30236     2.02425    -0.59940
H      3.61895     2.78182     1.77805
H      4.59571     1.44900     1.14175
H      4.90733     3.08732     0.56944
C      1.69325    -4.43537    -1.85588
C      2.60686    -5.57664    -2.17219
O      1.50295    -3.50709    -2.63045
O      1.13301    -4.51012    -0.67201
H      0.51992    -3.74170    -0.54053
H      2.24807    -6.48819    -1.70485
H      2.69201    -5.69562    -3.24792
H      3.58795    -5.34053    -1.76372
C     -0.28708     0.25469     2.88278
C      0.91647    -0.55559     2.50652
O     -0.24763     1.35731     3.37292
O     -1.43378    -0.38625     2.61049
H     -2.17735     0.20341     2.81187
H      1.38262    -0.92845     3.41657
H      0.64139    -1.38172     1.86150
H      1.62734     0.10107     2.01251
C      0.76423     1.53447    -3.12592
C     -0.20009     1.18579    -4.21182
O      0.41841     2.03163    -2.05777
O      2.00943     1.25513    -3.41135
H      2.61090     1.52851    -2.67022
H      0.12214     1.63310    -5.15004
H     -0.20689     0.10630    -4.33308
H     -1.19058     1.53090    -3.94136
C     -3.79224     2.47932     2.77971
C     -2.91213     3.09510     3.81418
O     -3.80558     1.27053     2.55196
O     -4.55601     3.32839     2.13396
H     -5.11495     2.86506     1.45422
H     -1.87203     2.91529     3.54826
H     -3.11534     4.15657     3.89981
H     -3.08235     2.58572     4.75948
C      4.03847    -1.57418    -0.26014
C      3.72735    -1.00340    -1.60636
O      4.25404    -0.87292     0.71788
O      4.04879    -2.88773    -0.22322
H      4.21466    -3.21280     0.70304
H      4.45165    -0.23234    -1.84595
H      3.70510    -1.78335    -2.35682
H      2.75394    -0.52648    -1.55092
C     -3.08596     3.15815    -1.92086
C     -4.16690     4.14575    -1.59921
O     -3.25866     1.96998    -2.06336
O     -1.89140     3.74603    -2.03897
H     -1.20042     3.06872    -2.13132
H     -4.14410     4.37123    -0.53461
H     -4.00452     5.06888    -2.14951
H     -5.13392     3.71773    -1.83256
