 48
-1375.5450566144552
C     -3.35455     0.98512     3.37594
C     -4.22626     0.85824     4.59345
O     -3.39612     1.92346     2.61314
O     -2.54146    -0.05856     3.21463
H     -1.98891     0.10359     2.43170
H     -4.11987     1.75278     5.20335
H     -5.26555     0.80476     4.27353
H     -3.96602    -0.02620     5.16423
C      2.05294    -1.77386     0.54672
C      1.02873    -1.92619     1.61653
O      2.54607    -0.68811     0.24123
O      2.37857    -2.88695    -0.05749
H      3.08681    -2.73714    -0.74090
H      0.06739    -1.62211     1.20957
H      0.97625    -2.95585     1.95191
H      1.24501    -1.25456     2.44037
C      0.00138     1.92371     1.07804
C     -0.70869     3.23815     1.11622
O     -0.41771     0.88943     1.55372
O      1.16654     1.98415     0.43404
H      1.55225     1.09458     0.42729
H      0.00580     4.03909     1.29332
H     -1.17315     3.39607     0.14472
H     -1.47756     3.21459     1.87928
C     -3.39402     0.90186    -0.67107
C     -4.72965     1.37201    -0.20063
O     -2.88583    -0.14858    -0.30558
O     -2.79422     1.73920    -1.48906
H     -1.95991     1.32782    -1.84413
H     -5.35009     0.51801     0.04991
H     -4.56333     1.95584     0.70449
H     -5.19668     1.99678    -0.95577
C      4.84979    -1.47070    -2.07704
C      5.97620    -1.38379    -3.06098
O      4.19171    -2.49048    -1.93061
O      4.63096    -0.36166    -1.40270
H      3.87803    -0.47336    -0.77280
H      6.72706    -2.12551    -2.80093
H      5.59905    -1.63592    -4.04857
H      6.40851    -0.39017    -3.05933
C     -0.20624    -0.51143    -2.14126
C      0.91998    -1.14332    -2.89357
O     -0.64110     0.59266    -2.42076
O     -0.65067    -1.22890    -1.13366
H     -1.47700    -0.82188    -0.75237
H      1.85222    -0.79661    -2.45349
H      0.88100    -2.22213    -2.80935
H      0.90233    -0.82662    -3.93019
