 72
-2063.325896749734
C      5.20320     1.05580     2.58489
C      6.27939     1.50376     3.52993
O      4.57012     1.84505     1.89911
O      5.00639    -0.24521     2.56400
H      4.26894    -0.46670     1.94289
H      6.74645     0.64875     4.00439
H      7.01399     2.08590     2.97982
H      5.83859     2.15847     4.27760
C     -1.59105     1.62305    -2.08884
C     -2.86140     0.85497    -2.02290
O     -0.56379     1.18583    -2.60956
O     -1.65132     2.80700    -1.53164
H     -0.76981     3.26450    -1.54534
H     -2.76032     0.11318    -1.22961
H     -3.69006     1.50483    -1.76942
H     -3.01782     0.32434    -2.95561
C     -0.26083     1.04590     1.78775
C     -0.38222     2.53737     1.85278
O     -0.68325     0.37443     0.87233
O      0.38238     0.53399     2.83344
H      0.37901    -0.43548     2.76219
H     -0.31764     2.89237     2.87747
H      0.41822     2.98013     1.26251
H     -1.32295     2.83110     1.39953
C     -2.67640    -2.59966    -0.16273
C     -3.98302    -2.34702    -0.83354
O     -2.38210    -2.13927     0.93415
O     -1.86561    -3.36979    -0.85347
H     -1.01970    -3.49514    -0.35433
H     -4.54259    -1.61343    -0.26871
H     -3.80197    -1.99945    -1.84499
H     -4.53497    -3.28419    -0.89216
C     -4.27484     0.80266     1.81929
C     -5.08643     1.66105     2.74936
O     -4.49532     0.68297     0.63857
O     -3.26434     0.19124     2.45038
H     -2.76280    -0.33155     1.80196
H     -5.92578     2.08623     2.21027
H     -5.44034     1.07217     3.59362
H     -4.45986     2.46143     3.14146
C      0.63417    -3.16179     1.67909
C      1.86442    -3.53439     2.43737
O      0.34955    -3.61108     0.58704
O     -0.12572    -2.25816     2.29323
H     -0.97711    -2.15372     1.79301
H      2.54178    -2.68133     2.41707
H      1.61657    -3.74752     3.47348
H      2.34068    -4.39026     1.97325
C     -1.31472    -2.19000    -3.96940
C     -1.02144    -3.60228    -4.38093
O     -2.38035    -1.64428    -4.12202
O     -0.25431    -1.59922    -3.39925
H     -0.48359    -0.68437    -3.15893
H     -1.65917    -3.86872    -5.21844
H      0.02792    -3.71305    -4.63868
H     -1.24538    -4.26486    -3.54693
C      1.69407     3.60102    -2.06215
C      3.02544     4.27209    -1.93154
O      0.70683     3.94677    -1.43199
O      1.68597     2.59762    -2.91843
H      0.82667     2.11732    -2.87976
H      3.63459     3.67888    -1.25155
H      3.52304     4.30847    -2.89655
H      2.89752     5.26721    -1.51921
C      2.53657    -0.03652     0.06042
C      1.67736    -0.49712    -1.06637
O      2.98296    -0.78353     0.91683
O      2.75805     1.26301     0.06776
H      3.41675     1.49862     0.77411
H      0.64945    -0.22668    -0.84540
H      1.96111     0.00034    -1.98773
H      1.75737    -1.57352    -1.16155
