 72
-2063.3201180325573
C     -0.49793    -4.31143    -0.42843
C      0.40971    -5.45672    -0.72267
O     -1.06637    -4.16876     0.65005
O     -0.61928    -3.45233    -1.40977
H     -1.24054    -2.73305    -1.17182
H      1.35373    -5.26790    -0.21300
H     -0.01563    -6.37093    -0.31849
H      0.57693    -5.53490    -1.79063
C      3.17634    -0.25232    -1.37507
C      2.28528    -1.33555    -0.88399
O      2.76537     0.77954    -1.92286
O      4.44938    -0.46627    -1.18278
H      5.01939     0.25488    -1.56454
H      2.87530    -2.21639    -0.66538
H      1.80351    -0.96715     0.02301
H      1.50505    -1.53697    -1.61038
C     -4.75149     4.03776     1.74489
C     -5.69196     5.20480     1.82728
O     -5.12928     2.88977     1.93820
O     -3.51367     4.35818     1.44925
H     -2.93904     3.54751     1.40735
H     -6.15532     5.21648     2.81056
H     -5.16182     6.13204     1.64462
H     -6.48513     5.06928     1.09618
C     -3.81368    -2.31028     0.22898
C     -5.18181    -1.71027     0.34900
O     -3.12056    -2.22660    -0.76338
O     -3.42787    -2.94059     1.33283
H     -2.57220    -3.38711     1.15997
H     -5.49133    -1.32351    -0.61650
H     -5.88697    -2.46020     0.70056
H     -5.15805    -0.90278     1.07446
C     -2.36850     1.06422     1.69248
C     -1.41893    -0.07676     1.75027
O     -2.03290     2.19531     1.36812
O     -3.61169     0.74797     1.98625
H     -4.19754     1.55399     1.97946
H     -0.43582     0.27153     2.03716
H     -1.77757    -0.82669     2.44176
H     -1.34108    -0.50201     0.75305
C      1.72629    -2.86192     2.18026
C      2.62952    -2.06038     3.07072
O      2.10186    -3.57998     1.28234
O      0.43641    -2.68428     2.48660
H     -0.11441    -3.21222     1.88101
H      3.66341    -2.29475     2.84254
H      2.44638    -0.99981     2.90320
H      2.41100    -2.27639     4.11492
C      5.72863     2.02305    -3.27077
C      6.70346     2.78548    -4.11392
O      6.04172     1.37767    -2.28521
O      4.48153     2.12108    -3.70457
H      3.87661     1.64775    -3.09952
H      7.71193     2.59934    -3.76637
H      6.59729     2.48877    -5.15432
H      6.47844     3.84794    -4.04969
C     -0.92051     0.56769    -1.93905
C     -2.30423     1.08833    -2.18636
O     -0.65775    -0.43283    -1.31121
O      0.01330     1.35541    -2.48057
H      0.88646     0.95120    -2.35178
H     -2.44568     2.00691    -1.61972
H     -2.43095     1.32044    -3.24290
H     -3.02503     0.34209    -1.87205
C      1.64352     2.01622     1.26291
C      1.36143     2.90256     2.43644
O      1.65619     0.80655     1.30279
O      1.86836     2.70557     0.14382
H      2.04812     2.07787    -0.57487
H      0.33011     3.24811     2.37550
H      1.49447     2.33567     3.35277
H      2.01722     3.77024     2.42171
