 48
-1375.5368636520145
C      2.12084     1.90589     2.42535
C      1.15884     2.84925     3.08427
O      3.30984     2.07315     2.32429
O      1.49690     0.81245     1.94099
H      2.16388     0.23877     1.53088
H      1.69753     3.72094     3.43843
H      0.38296     3.14163     2.38046
H      0.67470     2.34677     3.92003
C      2.30068    -3.83758    -1.70728
C      1.53195    -4.95384    -2.33121
O      1.75767    -2.86492    -1.18404
O      3.59886    -3.98075    -1.75446
H      4.06724    -3.22731    -1.30227
H      0.94743    -5.45275    -1.56350
H      0.81653    -4.53893    -3.03630
H      2.20431    -5.64939    -2.82074
C     -2.08613     1.86876     0.19438
C     -1.05070     0.80127     0.03769
O     -1.90051     2.85645     0.89445
O     -3.19345     1.65050    -0.47510
H     -3.84325     2.39024    -0.33261
H     -0.11700     1.26628    -0.26525
H     -0.87465     0.33752     1.00387
H     -1.37239     0.06632    -0.68798
C     -4.72461     4.62485     0.59488
C     -5.75274     5.70684     0.75322
O     -4.92918     3.63301    -0.08925
O     -3.60842     4.84591     1.25284
H     -2.96338     4.10067     1.12005
H     -5.36657     6.50660     1.37411
H     -6.02528     6.08222    -0.22986
H     -6.64766     5.27824     1.19773
C      4.36683    -1.15181     0.18510
C      5.14560    -0.12874     0.93256
O      4.87206    -1.99476    -0.52951
O      3.04948    -1.06438     0.35976
H      2.57635    -1.72889    -0.19823
H      4.91134     0.85752     0.54025
H      4.84426    -0.12388     1.97570
H      6.20586    -0.33242     0.83314
C     -1.85243    -3.42369    -1.66929
C     -3.27262    -3.03535    -1.96368
O     -1.48050    -4.53319    -1.38212
O     -1.01791    -2.37459    -1.77638
H     -0.11338    -2.68080    -1.58918
H     -3.92529    -3.87756    -1.76307
H     -3.56316    -2.17957    -1.35830
H     -3.36155    -2.74356    -3.00939
