 80
-2292.5844899039594
C      2.50313    -0.60824     2.11942
C      1.38292    -0.18465     3.01441
O      3.45303     0.10932     1.85605
O      2.38418    -1.83898     1.64905
H      3.22712    -2.12559     1.22401
H      1.46330    -0.72160     3.95792
H      1.45411     0.88194     3.17767
H      0.43471    -0.42949     2.55212
C     -4.72460     1.76060     3.26569
C     -5.01398     0.32036     3.53349
O     -5.15584     2.33736     2.26861
O     -3.99379     2.35721     4.16725
H     -3.81140     3.30492     3.91383
H     -6.09221     0.17770     3.56397
H     -4.63136    -0.27414     2.70675
H     -4.56349     0.00808     4.46907
C     -0.15056    -1.37966    -3.70687
C     -1.08791    -2.37727    -4.29805
O      0.89551    -1.67196    -3.15053
O     -0.54896    -0.12680    -3.83348
H      0.10827     0.45486    -3.40139
H     -1.69619    -1.91084    -5.06615
H     -0.51922    -3.21195    -4.69568
H     -1.72911    -2.74973    -3.50067
C     -0.63617     1.67233     0.57022
C     -1.77973     1.89572     1.50461
O      0.52462     1.67068     0.90173
O     -1.03031     1.45858    -0.69127
H     -0.24078     1.38715    -1.26300
H     -1.43323     2.40704     2.39596
H     -2.56664     2.47488     1.03705
H     -2.20028     0.93191     1.77495
C      2.25326     0.93451    -1.69471
C      3.14615     1.89557    -0.99086
O      1.23225     1.28601    -2.27967
O      2.61826    -0.32390    -1.64994
H      1.99775    -0.87853    -2.18450
H      4.13653     1.47151    -0.86510
H      3.18613     2.82895    -1.54751
H      2.71613     2.08503    -0.00720
C     -4.08056     0.51365    -0.61548
C     -3.64054     0.22933    -2.01419
O     -3.92146    -0.23565     0.33100
O     -4.69402     1.68823    -0.49329
H     -4.95921     1.82571     0.43116
H     -3.25834    -0.78184    -2.06725
H     -4.47194     0.36651    -2.70307
H     -2.85157     0.92446    -2.29012
C     -1.21429    -2.47443    -0.21632
C      0.05700    -3.22755     0.01807
O     -1.86675    -2.54039    -1.23378
O     -1.55637    -1.68846     0.81522
H     -2.41304    -1.26063     0.61935
H      0.19113    -3.47021     1.06746
H      0.05617    -4.12980    -0.58352
H      0.89867    -2.60935    -0.28824
C     -3.72159     5.35233     2.37091
C     -3.27026     6.73489     2.01076
O     -3.34671     4.78824     3.38833
O     -4.54964     4.81012     1.50099
H     -4.81826     3.90611     1.78933
H     -3.69112     7.43730     2.72648
H     -2.18867     6.79216     2.09386
H     -3.59460     6.98726     1.00810
C      5.67475    -1.81113     0.32454
C      6.96817    -2.28280    -0.24893
O      4.76733    -2.57499     0.65354
O      5.56286    -0.50997     0.42984
H      4.74435    -0.25533     0.93169
H      7.32036    -3.14275     0.31392
H      6.77155    -2.60446    -1.27133
H      7.69593    -1.47962    -0.24281
C      4.02974    -3.77539    -2.56652
C      3.34202    -4.41764    -3.73487
O      5.06801    -3.16089    -2.62640
O      3.34779    -3.95027    -1.42839
H      3.83809    -3.51650    -0.71234
H      3.11945    -5.45877    -3.51000
H      2.40141    -3.90254    -3.92026
H      3.97881    -4.34688    -4.61003
