 80
-2292.5812073829848
C      0.45860     3.48699    -1.81440
C     -0.77816     4.19796    -2.26489
O      1.50862     4.05729    -1.56946
O      0.31223     2.17843    -1.71345
H      1.15458     1.76512    -1.40468
H     -1.56461     3.48145    -2.46921
H     -1.08976     4.87940    -1.47563
H     -0.54408     4.78986    -3.14822
C     -5.82782     2.28222    -0.16877
C     -6.97738     3.09717     0.33928
O     -5.49453     1.23108     0.37324
O     -5.22219     2.77212    -1.21394
H     -4.45709     2.19156    -1.50287
H     -7.89966     2.54899     0.15702
H     -6.87134     3.21890     1.41383
H     -7.01466     4.05852    -0.15940
C      1.06086    -6.58454    -1.97577
C      0.40208    -7.49683    -2.96676
O      2.19740    -6.77604    -1.56911
O      0.31030    -5.57369    -1.59148
H      0.78337    -5.02073    -0.92165
H      0.17581    -8.43833    -2.47124
H     -0.51033    -7.05246    -3.34746
H      1.09816    -7.71046    -3.77231
C      0.86728    -0.60496     1.31784
C     -0.11454     0.49664     1.54990
O      1.87211    -0.78350     1.96143
O      0.51982    -1.40040     0.29479
H      1.10797    -2.17367     0.26920
H      0.01693     0.90099     2.54530
H      0.06734     1.29546     0.83697
H     -1.12626     0.13819     1.39646
C      2.61693    -4.42934     0.79857
C      3.18778    -3.65733     1.93352
O      1.61756    -4.07101     0.17233
O      3.27646    -5.51785     0.49729
H      2.85784    -5.99906    -0.26535
H      3.81290    -4.29997     2.54429
H      3.78961    -2.85417     1.50594
H      2.39352    -3.19474     2.50662
C     -3.30795     1.98611     2.98061
C     -2.68578     2.19646     4.32227
O     -2.77574     2.25258     1.91960
O     -4.53428     1.46918     3.04300
H     -4.85415     1.31245     2.13736
H     -2.18859     3.16030     4.35074
H     -3.43604     2.10353     5.09990
H     -1.90684     1.45059     4.47302
C      0.16942     3.90674     2.23589
C      1.22931     4.94463     2.00969
O      0.06669     3.25739     3.24751
O     -0.65142     3.79147     1.18417
H     -1.37113     3.16423     1.40823
H      1.00044     5.82112     2.61519
H      2.18964     4.55133     2.33239
H      1.27014     5.21927     0.96189
C     -2.75417     0.29797    -1.49551
C     -1.53132    -0.39674    -1.98433
O     -3.22849     1.29380    -2.02313
O     -3.27462    -0.25216    -0.41001
H     -4.04838     0.26490    -0.10179
H     -1.67364    -1.47258    -1.98028
H     -1.25866    -0.04191    -2.97097
H     -0.72026    -0.17398    -1.29811
C      3.37587     1.78915    -0.09507
C      4.26927     1.09455     0.87317
O      2.60256     1.18564    -0.83874
O      3.45511     3.09663    -0.08107
H      2.78227     3.48477    -0.70040
H      4.70235     0.22059     0.39525
H      5.03013     1.77500     1.24287
H      3.64835     0.74233     1.69700
C      3.74703    -2.27853    -1.79151
C      3.75727    -3.53001    -2.61598
O      4.27503    -2.17954    -0.70916
O      3.06611    -1.28305    -2.36598
H      3.05665    -0.52405    -1.76470
H      2.85691    -4.10142    -2.39793
H      3.76972    -3.30995    -3.67889
H      4.61008    -4.13733    -2.33709
