 48
-1375.5400816412184
C     -0.31925    -1.15320     2.21505
C      0.48369    -2.25582     2.83691
O     -0.39231    -0.02941     2.65420
O     -0.95334    -1.54150     1.09932
H     -1.41967    -0.77466     0.73070
H      0.02930    -3.22072     2.62998
H      1.48411    -2.23951     2.40835
H      0.56355    -2.08426     3.90582
C      4.71539    -1.99898    -1.10613
C      5.23963    -3.16840    -1.88929
O      4.42893    -2.08986     0.07882
O      4.59558    -0.89133    -1.80512
H      4.26921    -0.14797    -1.22596
H      4.53238    -3.99003    -1.81000
H      5.39137    -2.89312    -2.92668
H      6.17513    -3.49769    -1.44364
C      0.49047     1.37416    -2.14287
C      1.52396     1.24191    -3.22161
O      0.50753     2.22637    -1.28532
O     -0.46492     0.43840    -2.21325
H     -1.06368     0.56256    -1.46168
H      1.15122     0.64036    -4.04455
H      1.80595     2.23314    -3.56556
H      2.41132     0.77226    -2.80078
C     -2.46028     1.72663     0.87135
C     -1.39170     2.67135     1.28750
O     -2.27623     0.81105     0.05924
O     -3.62642     1.91712     1.42205
H     -4.31181     1.27977     1.07832
H     -0.71812     2.12135     1.94450
H     -0.83391     2.97986     0.40948
H     -1.82493     3.51780     1.81040
C      3.14755     0.88850     0.80584
C      2.37011     1.98264     1.45857
O      3.71235     1.02534    -0.26930
O      3.17540    -0.23133     1.50055
H      3.67206    -0.93342     1.00267
H      1.83150     2.53205     0.69440
H      1.70467     1.55974     2.19961
H      3.07964     2.65921     1.93711
C     -5.39281    -0.55565    -0.38751
C     -6.51989    -1.41046    -0.88282
O     -5.51833     0.27344     0.49736
O     -4.24839    -0.79025    -1.00863
H     -3.53459    -0.22422    -0.64751
H     -6.66868    -1.23072    -1.94496
H     -6.25890    -2.45868    -0.75856
H     -7.42437    -1.18062    -0.33317
