 48
-1375.541317593676
C     -1.44547     0.55062     0.39461
C     -2.49842     1.60988     0.26502
O     -0.92370    -0.00743    -0.54106
O     -1.12754     0.31161     1.67289
H     -0.40430    -0.33209     1.69077
H     -3.15001     1.61756     1.13305
H     -2.01792     2.58408     0.18999
H     -3.06920     1.44678    -0.64381
C      0.87139    -2.51605    -1.56271
C     -0.13521    -2.82424    -2.61474
O      0.82733    -2.99123    -0.42804
O      1.81529    -1.68750    -1.93605
H      2.36673    -1.42496    -1.15578
H     -0.28950    -3.89814    -2.66222
H     -1.08517    -2.38391    -2.31500
H      0.18070    -2.42654    -3.57325
C      0.82986     2.64639    -1.10202
C      1.39048     1.68113    -2.08968
O      1.07722     2.59462     0.09612
O      0.03122     3.54324    -1.63221
H     -0.30252     4.17745    -0.94495
H      0.63485     0.92365    -2.27847
H      1.62434     2.18756    -3.02380
H      2.26740     1.19931    -1.67414
C     -0.53440     5.15050     1.42913
C     -1.02381     6.18376     2.40357
O     -0.90658     5.13792     0.26458
O      0.30701     4.27602     1.93471
H      0.60669     3.63175     1.23646
H     -0.59109     6.01821     3.38321
H     -0.75776     7.17052     2.03187
H     -2.10903     6.13635     2.45224
C      2.42214    -0.61874     1.24876
C      2.82345     0.36637     2.29620
O      3.05418    -0.80825     0.22714
O      1.28999    -1.26013     1.51965
H      1.12811    -1.95957     0.83406
H      2.65466    -0.04026     3.28915
H      3.86467     0.63439     2.15955
H      2.20423     1.25491     2.17925
C     -1.99921    -5.28225    -0.45203
C     -2.75575    -6.52568    -0.07065
O     -2.46179    -4.35198    -1.06374
O     -0.72533    -5.33888    -0.03481
H     -0.27853    -4.50338    -0.26558
H     -2.27985    -7.39689    -0.51747
H     -2.73064    -6.65690     1.00940
H     -3.78081    -6.44443    -0.41341
