 40
-1146.2760694719648
C      2.75662    -3.35187    -1.89314
C      3.26552    -4.36118    -2.87712
O      1.58613    -3.27181    -1.55810
O      3.70084    -2.55678    -1.42556
H      3.31659    -1.88651    -0.81838
H      3.68527    -3.84489    -3.73757
H      4.06264    -4.94368    -2.42164
H      2.45652    -5.00902    -3.19128
C      1.55871    -0.95357     0.88562
C      1.19452    -0.27816     2.15967
O      2.57331    -0.69786     0.25265
O      0.68262    -1.85689     0.48296
H      1.01410    -2.35774    -0.31231
H      0.90288    -1.01214     2.90516
H      2.02383     0.32834     2.50588
H      0.32039     0.34425     1.98040
C      1.12979     2.30456    -1.01819
C      0.83643     3.72157    -1.37981
O      0.29155     1.48295    -0.69705
O      2.42638     2.00477    -1.06903
H      2.53910     1.08294    -0.78976
H      0.41835     4.22881    -0.51403
H      1.73491     4.22156    -1.72418
H      0.06035     3.74207    -2.14042
C     -2.64281    -0.79951     1.88957
C     -4.07309    -0.35221     1.83056
O     -1.89243    -0.60297     2.81290
O     -2.28472    -1.46277     0.77811
H     -1.33268    -1.63628     0.82074
H     -4.20313     0.33526     0.99982
H     -4.72124    -1.21170     1.66337
H     -4.33258     0.13729     2.76336
C     -2.82106     3.06583    -0.01961
C     -4.25866     3.16418     0.40769
O     -2.15322     4.00180    -0.38230
O     -2.36622     1.80671     0.04792
H     -1.43009     1.78490    -0.23442
H     -4.57222     4.20160     0.37573
H     -4.88418     2.56823    -0.25471
H     -4.37177     2.77212     1.41596
