 72
-2063.3254599475545
C      3.40542     2.42206    -0.66250
C      3.26396     3.91244    -0.71236
O      3.09127     1.68811    -1.58355
O      3.88035     1.97920     0.48517
H      3.89373     0.98918     0.46840
H      4.20912     4.38200    -0.44775
H      2.94929     4.21102    -1.70469
H      2.51627     4.21631     0.01571
C     -3.24713     4.59595     0.80139
C     -4.12477     4.73985     2.00346
O     -2.07242     4.91023     0.77126
O     -3.88349     4.08691    -0.24409
H     -3.23940     3.86639    -0.94184
H     -4.04327     3.82007     2.58157
H     -3.77734     5.56386     2.61752
H     -5.15774     4.87579     1.70304
C     -0.53381     0.09987    -2.70102
C     -0.27935    -1.28718    -3.20089
O      0.33485     0.86975    -2.32984
O     -1.82036     0.41292    -2.69269
H     -1.93244     1.35056    -2.42029
H     -0.54863    -1.33330    -4.25625
H      0.76749    -1.52709    -3.07581
H     -0.90921    -1.98456    -2.65599
C     -0.82331    -5.09618     0.72822
C     -0.25341    -6.44453     1.02681
O     -0.48343    -4.08026     1.33145
O     -1.72346    -5.08785    -0.22166
H     -2.09135    -4.17040    -0.36880
H      0.82915    -6.38240     1.08960
H     -0.60893    -6.75148     2.00880
H     -0.56821    -7.15994     0.27535
C     -1.08228     3.82099    -2.30961
C     -1.32903     5.29514    -2.39754
O     -1.97364     3.01807    -2.03960
O      0.15512     3.46929    -2.51895
H      0.28162     2.49060    -2.40937
H     -1.12328     5.72308    -1.41793
H     -0.67403     5.75108    -3.13472
H     -2.37088     5.47749    -2.64006
C     -2.79081    -1.82021     0.26190
C     -3.75696    -0.68749     0.18625
O     -2.68202    -2.66976    -0.60844
O     -2.05514    -1.81657     1.35985
H     -1.47536    -2.60903     1.38405
H     -3.42819     0.11233     0.83899
H     -3.82760    -0.35257    -0.84268
H     -4.73415    -1.05057     0.50606
C      3.02252    -1.33867    -0.44305
C      2.81166    -2.80670    -0.23294
O      3.65728    -0.65778     0.34325
O      2.45002    -0.87191    -1.53210
H      2.58416     0.11232    -1.61450
H      3.19690    -3.36485    -1.08306
H      3.31945    -3.10584     0.67321
H      1.75083    -3.01549    -0.14829
C     -0.49180     2.05475     1.30424
C      0.51059     0.95130     1.45730
O     -1.65640     1.96351     1.60394
O      0.04900     3.15685     0.76493
H     -0.64170     3.84808     0.73302
H      0.04607     0.08849     1.91853
H      0.90485     0.67449     0.48106
H      1.34690     1.29240     2.06666
C      2.70341    -4.86069     3.08001
C      3.82500    -4.58177     4.03721
O      2.67604    -5.76483     2.28106
O      1.72033    -3.95815     3.20048
H      1.00742    -4.17981     2.57907
H      3.44131    -4.52535     5.05370
H      4.57334    -5.36151     3.95769
H      4.26900    -3.61553     3.80071
