 80
-2292.5919710692083
C      0.90968    -0.24331    -2.38280
C      0.81894    -1.57583    -3.05208
O      1.25075     0.77303    -2.95386
O      0.60129    -0.26226    -1.09383
H      0.71609     0.64458    -0.71590
H      1.00044    -1.46348    -4.11748
H      1.56856    -2.23882    -2.62331
H     -0.15694    -2.01559    -2.87429
C     -2.85768     3.13304     0.88271
C     -3.12393     4.35031     1.69533
O     -3.11392     1.99589     1.27234
O     -2.30314     3.35918    -0.28375
H     -2.31418     2.54935    -0.85813
H     -2.18091     4.71228     2.10631
H     -3.52552     5.14010     1.06797
H     -3.80442     4.10625     2.50315
C     -1.62987    -6.48756    -2.21266
C     -1.79768    -7.68877    -3.09609
O     -1.13464    -6.56971    -1.09763
O     -2.05362    -5.36065    -2.73977
H     -1.91976    -4.60367    -2.10906
H     -2.37339    -8.44160    -2.56381
H     -2.29091    -7.41401    -4.02115
H     -0.81773    -8.11311    -3.30041
C      0.32519     6.05439     3.23732
C      0.87235     7.36539     3.74101
O     -0.43495     5.96476     2.30071
O      0.78169     5.00976     3.93240
H      0.36971     4.19261     3.58010
H      1.32927     7.89944     2.91049
H      0.04716     7.97379     4.10618
H      1.59555     7.20135     4.53216
C     -1.18734    -3.46099     0.08218
C     -0.98997    -2.26453     0.94779
O     -1.68732    -3.39225    -1.03243
O     -0.76651    -4.58886     0.61267
H     -0.91592    -5.34710    -0.01379
H     -1.87681    -2.12089     1.56335
H     -0.12187    -2.41902     1.57960
H     -0.87569    -1.39621     0.31505
C      0.02964     1.74913     2.64830
C      1.46385     1.35947     2.77778
O     -0.40012     2.86533     2.86979
O     -0.75872     0.76123     2.24863
H     -1.63433     1.12792     2.03861
H      2.00479     2.12034     3.33017
H      1.55700     0.39520     3.27142
H      1.88095     1.25971     1.77940
C      3.83618    -0.35494    -0.46054
C      4.26004     1.01109    -0.88745
O      3.86123    -1.30919    -1.21985
O      3.43398    -0.42601     0.78853
H      3.12149    -1.34386     0.99752
H      3.77829     1.75420    -0.26148
H      5.34176     1.09216    -0.77690
H      4.00377     1.14839    -1.93320
C     -3.21725     0.21672    -1.51856
C     -3.69815    -0.75595    -2.54699
O     -2.62217     1.24694    -1.78758
O     -3.48710    -0.15995    -0.28253
H     -3.30735     0.57599     0.34445
H     -3.21902    -0.54776    -3.49693
H     -3.48149    -1.76571    -2.21470
H     -4.77669    -0.65109    -2.65355
C      0.78106     3.25242    -0.92499
C      0.69326     4.60396    -0.30417
O      0.95525     2.22829    -0.27479
O      0.65846     3.24334    -2.22843
H      0.80358     2.32365    -2.56279
H      1.37420     5.29102    -0.80027
H     -0.31817     4.98635    -0.41038
H      0.92254     4.52629     0.74849
C      2.96660    -3.89093     0.62254
C      2.78067    -5.27481     1.16939
O      2.61481    -2.89538     1.24020
O      3.52619    -3.84066    -0.56663
H      3.66284    -2.89603    -0.83854
H      1.71517    -5.46613     1.26456
H      3.23473    -6.00570     0.50943
H      3.22024    -5.32942     2.16283
