 40
-1146.2822403776715
C      0.10566    -3.26396    -1.19824
C     -0.48005    -4.58084    -1.58596
O      0.20742    -2.89787    -0.03469
O      0.47005    -2.53061    -2.22571
H      0.88425    -1.68354    -1.91304
H      0.03308    -4.97754    -2.45695
H     -0.42716    -5.26935    -0.74981
H     -1.52463    -4.41626    -1.84477
C      2.05851    -0.21151    -0.18779
C      3.17081     0.73106     0.13679
O      1.58097    -0.31515    -1.30446
O      1.63765    -0.90230     0.84874
H      1.04834    -1.64623     0.54326
H      3.45760     1.27821    -0.75396
H      2.83454     1.41970     0.90595
H      4.02341     0.17584     0.52284
C      0.97763     3.86864    -0.36417
C      1.52750     4.86251    -1.34432
O      1.49766     3.67621     0.72634
O     -0.08125     3.21787    -0.78574
H     -0.35780     2.54530    -0.10673
H      1.74097     5.79776    -0.83421
H      2.46831     4.47480    -1.73141
H      0.82971     5.01194    -2.15987
C     -3.10272    -1.60877    -0.41322
C     -2.20639    -0.56042    -0.99101
O     -3.48746    -2.60649    -0.96821
O     -3.45824    -1.33203     0.86494
H     -4.02399    -2.06194     1.14614
H     -1.23972    -0.57123    -0.49700
H     -2.06918    -0.75785    -2.04662
H     -2.61334     0.43378    -0.83810
C     -0.32356     1.29271     2.12135
C     -0.88427     0.31441     3.09910
O     -0.74364     1.41231     0.97860
O      0.68254     1.99256     2.59340
H      0.99165     2.65049     1.91816
H     -1.90312     0.06498     2.82799
H     -0.27231    -0.58431     3.05312
H     -0.83270     0.71887     4.10602
