 56
-1604.8055039546116
C      3.12139     2.69253    -0.26040
C      2.66517     4.11912    -0.32841
O      4.19382     2.32897     0.15162
O      2.16793     1.84986    -0.69216
H      2.45231     0.93185    -0.53122
H      2.14098     4.31413    -1.25940
H      1.96927     4.31119     0.48639
H      3.51615     4.78237    -0.22171
C     -4.63100    -2.78132    -2.97600
C     -5.66956    -2.84301    -4.05732
O     -4.48077    -1.78506    -2.28225
O     -3.91677    -3.87582    -2.84742
H     -3.24949    -3.78514    -2.11691
H     -5.52931    -2.00273    -4.73243
H     -5.60150    -3.78137    -4.59535
H     -6.65353    -2.73708    -3.60631
C     -0.63774     2.42074     0.61578
C     -1.13622     1.28664    -0.22015
O     -0.02982     2.25240     1.66408
O     -0.89800     3.60389     0.11163
H     -0.28230     7.01794     3.98948
H     -0.59645     1.27826    -1.16174
H     -0.98470     0.35249     0.30352
H     -2.19320     1.41278    -0.43712
C      1.64216    -3.94216    -1.29749
C      1.14780    -5.04557    -2.17557
O      2.05345    -4.12188    -0.16158
O      1.55527    -2.75033    -1.85264
H      1.91028    -2.05864    -1.24336
H      1.46218    -6.00396    -1.77784
H      0.05969    -4.99469    -2.19470
H      1.51174    -4.90618    -3.18976
C     -2.02466    -2.63003    -0.19082
C     -1.02044    -2.57305     0.91641
O     -2.13956    -3.61430    -0.90792
O     -2.73140    -1.53405    -0.33488
H     -3.39202    -1.63174    -1.07523
H     -1.36828    -1.95509     1.73483
H     -0.78755    -3.57767     1.24859
H     -0.11148    -2.13573     0.51558
C      0.32136     5.28692     2.92452
C      0.61493     6.41626     3.86900
O     -0.11466     5.48590     1.79866
O      0.58043     4.09447     3.40902
H      0.35664     3.38345     2.74908
H     -0.62308     4.32566     0.73671
H      0.94982     6.03167     4.82516
H      1.37668     7.05494     3.42822
C      2.59799    -1.08914     1.08274
C      2.82575     0.04149     2.03129
O      2.37309    -0.90696    -0.11630
O      2.62564    -2.28030     1.61473
H      2.46679    -2.98885     0.92996
H      3.60672     0.68427     1.63614
H      1.91899     0.64023     2.07817
H      3.08957    -0.33588     3.01422
