 48
-1375.5474635833575
C      0.81943    -3.16165     2.63925
C      1.94414    -3.72480     3.45602
O      0.00012    -3.82928     2.05135
O      0.84318    -1.82727     2.59453
H      0.10566    -1.52072     2.04314
H      1.75820    -4.77345     3.66382
H      2.86615    -3.63053     2.88316
H      2.06378    -3.16535     4.38057
C      1.43363    -3.19633    -0.65753
C      1.16380    -4.65676    -0.80933
O      0.65702    -2.33624    -1.04844
O      2.56233    -2.91731    -0.04731
H      2.70887    -1.93274    -0.01730
H      2.08915    -5.20407    -0.96299
H      0.69710    -4.99859     0.11430
H      0.47432    -4.80930    -1.63204
C     -1.49027     2.56687     0.67060
C     -1.30277     4.02695     0.93554
O     -2.09732     2.13886    -0.30458
O     -0.93671     1.78936     1.56770
H     -1.12022     0.83119     1.39762
H     -2.11615     4.58060     0.48012
H     -1.24751     4.21765     2.00321
H     -0.37283     4.33433     0.46077
C     -0.68211     4.27029    -2.63396
C     -0.47602     5.10657    -3.86542
O      0.19618     3.92557    -1.87745
O     -1.97012     3.95824    -2.45727
H     -2.04659     3.37175    -1.68096
H      0.57172     5.36658    -3.96351
H     -0.80467     4.55461    -4.74431
H     -1.08167     6.00899    -3.80219
C      2.09989     0.55790    -0.27312
C      2.35138     2.01577    -0.06437
O      2.90353    -0.30632     0.03816
O      0.92834     0.28007    -0.81353
H      0.84716    -0.69784    -0.93520
H      2.05898     2.57786    -0.94511
H      1.73857     2.35068     0.77091
H      3.40079     2.17132     0.16602
C     -2.06653    -1.27199     0.23255
C     -2.38450    -2.71635     0.07834
O     -1.46503    -0.80423     1.19488
O     -2.50170    -0.52878    -0.75518
H     -2.31194     0.42327    -0.60011
H     -1.74504    -3.11642    -0.70678
H     -2.17534    -3.23509     1.00435
H     -3.42128    -2.83578    -0.22700
