 48
-1375.5340590556866
C      1.45074    -0.76697     1.02923
C      2.59633    -1.29376     1.82714
O      1.51006    -0.55158    -0.17170
O      0.36467    -0.54062     1.74734
H     -0.34909    -0.18079     1.18173
H      3.13126    -2.04037     1.25017
H      3.29836    -0.48375     2.00774
H      2.23727    -1.69373     2.76916
C      8.27763    -1.96695     1.20569
C      9.39285    -2.57384     2.00568
O      8.38814    -1.73983     0.01039
O      7.19086    -1.70941     1.90099
H      6.48923    -1.31267     1.32075
H      9.10324    -2.67922     3.04473
H      9.64314    -3.54248     1.58020
H     10.27328    -1.94239     1.91679
C     -1.53929     0.75413    -1.08361
C     -2.61192     1.34488    -1.94082
O     -1.69357     0.51843     0.10955
O     -0.41626     0.51433    -1.72195
H      0.27080     0.12033    -1.12485
H     -2.24993     1.47424    -2.95483
H     -3.49093     0.70841    -1.91621
H     -2.91170     2.29889    -1.51406
C     -5.22793     0.99114     1.07138
C     -6.45582     1.01878     1.91622
O     -5.20783     1.19073    -0.12906
O     -4.12351     0.72263     1.76242
H     -3.36825     0.70195     1.14987
H     -7.12646     0.22679     1.59326
H     -6.19555     0.90294     2.96215
H     -6.98775     1.95016     1.74311
C      5.45413    -0.29092    -0.78446
C      4.38425     0.42655    -1.54493
O      5.30193    -0.64890     0.37843
O      6.55406    -0.49918    -1.46876
H      7.23543    -0.97059    -0.91806
H      4.13495     1.33712    -1.00589
H      4.72629     0.65581    -2.54724
H      3.48684    -0.18273    -1.56754
C     -8.57387     1.25369    -1.40089
C     -9.67563     1.27492    -2.42656
O     -8.76729     1.24570    -0.21011
O     -7.35963     1.24039    -1.96739
H     -6.67482     1.22322    -1.27116
H     -9.26992     1.38052    -3.42660
H    -10.24405     0.35010    -2.34742
H    -10.35342     2.09389    -2.19722
