 40
-1146.2804066611002
C      0.65155    -1.59672    -2.40802
C      0.03648    -2.93104    -2.66330
O      0.06131    -0.63394    -1.95843
O      1.94517    -1.55378    -2.72650
H      2.29998    -0.67970    -2.49128
H     -0.32347    -3.33356    -1.71865
H     -0.82964    -2.80054    -3.30839
H      0.76081    -3.59585    -3.11977
C      1.19648    -0.26881     1.06413
C      0.78898    -1.21732     2.13550
O      0.51371     0.64374     0.62633
O      2.41371    -0.52522     0.59891
H      2.62997     0.07897    -0.13441
H      0.02230    -0.76689     2.75321
H      0.37066    -2.09619     1.64818
H      1.65870    -1.51217     2.71561
C      2.38093     2.08149    -2.01054
C      3.02921     3.17875    -2.79189
O      2.93071     1.01219    -1.78086
O      1.16423     2.35997    -1.59742
H      0.80727     1.61828    -1.06699
H      3.07338     2.87687    -3.83638
H      2.46452     4.09854    -2.69822
H      4.04984     3.30627    -2.44454
C     -2.16368    -1.81291     0.43582
C     -3.39919    -2.04018     1.24342
O     -1.31048    -2.64658     0.23180
O     -2.07645    -0.56245    -0.03043
H     -1.25709    -0.47992    -0.55087
H     -4.24777    -1.52552     0.80005
H     -3.58793    -3.10588     1.32285
H     -3.23190    -1.62804     2.23830
C     -2.27998     1.36705     2.90650
C     -3.07833     2.32078     3.74988
O     -2.11979     0.19908     3.18191
O     -1.77388     1.94706     1.81833
H     -1.25243     1.29852     1.31005
H     -4.12512     2.02329     3.72118
H     -2.74578     2.24545     4.78245
H     -2.97447     3.33802     3.38824
