 72
-2063.3247901180634
C      2.42243     0.14328    -0.22885
C      2.53521     0.08212     1.26375
O      1.48111    -0.26975    -0.86576
O      3.48678     0.72001    -0.80198
H      3.37490     0.67630    -1.76578
H      2.33056     1.06404     1.68595
H      1.79851    -0.61084     1.65246
H      3.53814    -0.21554     1.56380
C     -0.52062     2.16569    -0.86334
C      0.35462     2.45321    -2.03860
O     -1.62633     1.64772    -1.00029
O     -0.02445     2.46801     0.30921
H     -0.61027     2.13500     1.03536
H      1.22494     3.02896    -1.75145
H      0.67145     1.49198    -2.43480
H     -0.21630     2.96151    -2.80895
C     -2.73092     1.10579     2.09178
C     -3.56292     0.70559     3.26072
O     -1.55026     1.43567     2.19071
O     -3.34877     1.05253     0.94167
H     -2.73894     1.29880     0.20454
H     -3.07237     0.99432     4.18209
H     -4.55228     1.15048     3.18697
H     -3.67834    -0.37704     3.24059
C     -1.52786    -0.83321    -3.63094
C     -2.04027    -1.45097    -4.89946
O     -1.01702    -1.44571    -2.72754
O     -1.68155     0.50127    -3.61812
H     -1.53951     0.81774    -2.70888
H     -2.18869    -2.51604    -4.75151
H     -2.96793    -0.97434    -5.20698
H     -1.30346    -1.29909    -5.68638
C      0.44901     0.11817     5.02602
C      1.63988    -0.53419     5.66380
O     -0.66096     0.12421     5.49732
O      0.74459     0.69280     3.84994
H     -0.08738     0.98969     3.45428
H      2.52395     0.09354     5.57736
H      1.41636    -0.73214     6.70708
H      1.83772    -1.48132     5.16434
C     -1.57370    -2.91685     5.47890
C     -1.72641    -2.93684     6.96661
O     -0.50797    -3.12131     4.91603
O     -2.69202    -2.63676     4.84251
H     -2.52542    -2.59873     3.86771
H     -1.72396    -1.90486     7.31387
H     -2.67561    -3.38752     7.23916
H     -0.89522    -3.46863     7.41611
C      2.29326     2.72892    -5.58887
C      2.26920     4.09526    -6.20818
O      1.74608     1.76783    -6.10865
O      2.93719     2.66317    -4.44133
H      2.95962     1.73039    -4.11569
H      2.79873     4.80556    -5.58410
H      2.72223     4.04290    -7.19487
H      1.23439     4.40099    -6.34098
C      2.19032    -0.74187    -3.96402
C      2.07880    -2.06531    -3.28877
O      2.92617     0.16214    -3.56822
O      1.42714    -0.60484    -5.01762
H      1.53905     0.29487    -5.43227
H      2.13248    -2.86399    -4.02302
H      2.85388    -2.15809    -2.53887
H      1.10660    -2.10149    -2.79734
C     -1.05523    -2.18371     1.78488
C     -0.90725    -1.70249     0.38385
O     -2.13429    -2.48261     2.27127
O      0.07467    -2.21995     2.47192
H     -0.09592    -2.57111     3.38353
H     -1.84307    -1.80128    -0.14689
H     -0.62277    -0.65842     0.41499
H     -0.11453    -2.21448    -0.14276
