 48
-1375.5406517698586
C     -3.24191    -0.89462    -0.25369
C     -4.15711     0.27938    -0.39554
O     -2.46722    -1.24891    -1.13146
O     -3.35570    -1.51001     0.90299
H     -2.74566    -2.29096     0.95015
H     -3.90537     0.83025    -1.29264
H     -5.18335    -0.07931    -0.45053
H     -4.06558     0.92581     0.47017
C      1.48363    -0.71622     0.56078
C      0.05739    -0.31050     0.72257
O      2.36762     0.05344     0.19673
O      1.70390    -1.98137     0.82831
H      2.66378    -2.22589     0.70929
H     -0.42459    -0.95951     1.44477
H     -0.00441     0.72918     1.01942
H     -0.43992    -0.42261    -0.23832
C      0.58507     3.17670    -0.86438
C      0.52007     4.59405    -1.32198
O     -0.38892     2.47364    -0.65512
O      1.82338     2.73007    -0.70127
H      1.80203     1.80595    -0.39335
H     -0.01757     5.17743    -0.57846
H      1.51708     4.98789    -1.48343
H     -0.06528     4.63510    -2.23791
C     -3.01004     4.53371     0.48518
C     -4.40461     4.89890     0.91773
O     -2.05928     5.27365     0.54681
O     -2.95035     3.28138     0.01479
H     -2.02668     3.08121    -0.23741
H     -4.79990     4.13546     1.58471
H     -4.38271     5.86200     1.41371
H     -5.05586     4.94664     0.04614
C      5.12082    -1.98241     0.07298
C      6.51718    -2.48654    -0.12954
O      4.22014    -2.69509     0.48999
O      4.95664    -0.71257    -0.23637
H      4.02574    -0.43569    -0.08223
H      7.14704    -1.70482    -0.53770
H      6.90864    -2.82972     0.82486
H      6.48989    -3.34379    -0.79716
C     -0.90781    -3.92136     0.08534
C      0.01698    -5.08751     0.22327
O     -1.60580    -3.51402     1.00003
O     -0.88556    -3.36943    -1.11018
H     -1.50639    -2.59823    -1.14632
H      1.02750    -4.70227     0.34406
H     -0.25341    -5.66850     1.09772
H     -0.01044    -5.69558    -0.67625
