 48
-1375.5444394099618
C      0.29517     0.11113     2.43678
C     -1.06695     0.54355     2.88602
O      0.99731    -0.67539     3.02221
O      0.65763     0.69710     1.28220
H      1.55542     0.40007     1.04993
H     -1.19948     1.61131     2.72650
H     -1.82032     0.01396     2.30555
H     -1.19167     0.29392     3.93608
C      2.52403    -1.15621    -2.51149
C      2.21698    -1.13946    -3.97472
O      2.54953    -2.18006    -1.84982
O      2.75283     0.04079    -2.00099
H      2.95128    -0.03508    -1.03646
H      1.20505    -0.76160    -4.10748
H      2.89925    -0.47231    -4.49474
H      2.27699    -2.14509    -4.37464
C     -1.09135     0.72859    -1.24551
C     -0.37134     2.01631    -1.45711
O     -2.17347     0.66372    -0.66707
O     -0.48714    -0.32568    -1.73014
H     -0.98739    -1.16410    -1.50968
H     -0.16907     2.45713    -0.48262
H      0.54929     1.84605    -2.00118
H     -1.02413     2.69189    -2.00678
C     -2.78490     4.05422     0.60308
C     -3.55261     5.34004     0.74598
O     -1.80107     3.76446     1.23871
O     -3.31800     3.25426    -0.33239
H     -2.81523     2.42047    -0.35690
H     -3.06597     5.97011     1.48148
H     -3.60140     5.85054    -0.21413
H     -4.57404     5.12587     1.05610
C      3.54518    -1.26853     1.19005
C      4.09740    -1.31143     2.57381
O      3.26573    -0.21274     0.61740
O      3.36762    -2.43166     0.62867
H      3.03236    -2.33981    -0.30973
H      3.26657    -1.15926     3.26145
H      4.55713    -2.27521     2.76041
H      4.80539    -0.49886     2.70783
C     -2.64957    -2.61314    -0.26972
C     -3.14899    -3.94433     0.20744
O     -1.79955    -2.50413    -1.14172
O     -3.21057    -1.57931     0.32448
H     -2.84527    -0.73918    -0.03993
H     -3.68392    -4.42677    -0.60751
H     -2.30018    -4.57392     0.46094
H     -3.80450    -3.82136     1.06219
