 32
-917.018487915721
C      2.10304    -0.35861    -1.68454
C      1.74853    -1.77461    -1.33683
O      2.17532     0.09340    -2.79796
O      2.34352     0.39402    -0.58857
H      2.42271     1.29926    -0.91106
H      2.66603    -2.33061    -1.13970
H      1.13108    -1.81428    -0.44367
H      1.23907    -2.23005    -2.18108
C     -1.55967     0.77427    -2.36199
C     -1.22590     0.97047    -3.80468
O     -2.54691     0.16960    -1.97617
O     -0.67779     1.31638    -1.54209
H     -0.94624     1.17109    -0.60717
H     -0.28994     0.46084    -4.01752
H     -2.02450     0.57314    -4.42039
H     -1.08296     2.02986    -4.00283
C      1.39759    -0.23914     2.57283
C      2.83135    -0.32585     3.00341
O      0.73574    -1.17406     2.19022
O      0.92616     1.01128     2.66006
H      0.03534     1.02000     2.26682
H      3.02349     0.35895     3.82556
H      3.06755    -1.34686     3.28769
H      3.46574    -0.03790     2.16571
C     -2.17355    -0.00709     1.35711
C     -2.32832    -0.46673     2.77227
O     -1.40332     0.89602     1.03470
O     -2.91787    -0.65116     0.50120
H     -2.77810    -0.32837    -0.43514
H     -2.07699     0.34927     3.44079
H     -3.33610    -0.82906     2.94966
H     -1.61519    -1.27270     2.93238
