 72
-2063.3245761268895
C     -2.07930    -1.17813     4.76361
C     -2.24609     0.20476     5.31542
O     -2.98688    -1.95150     4.57483
O     -0.79555    -1.46427     4.49307
H     -0.75116    -2.33777     4.07048
H     -3.24303     0.31667     5.72901
H     -1.49326     0.40666     6.07419
H     -2.11252     0.91623     4.50356
C     -0.97007     3.56007    -1.08393
C     -1.43950     4.65175    -1.99432
O     -1.69446     2.91192    -0.35571
O      0.33938     3.35147    -1.16431
H      0.58621     2.63543    -0.55522
H     -0.71945     5.46464    -2.01028
H     -1.52263     4.24726    -3.00121
H     -2.41408     5.00536    -1.67236
C      1.46342     0.82680     1.53548
C      0.43110     1.15734     2.55592
O      1.44107     1.29325     0.39598
O      2.38960    -0.00482     1.92837
H      3.07685    -0.11952     1.22232
H     -0.54881     1.10542     2.09144
H      0.50003     0.46946     3.38641
H      0.59459     2.17744     2.90168
C     -1.94035    -3.96278     2.46253
C     -2.94064    -4.79926     3.18585
O     -0.79035    -3.79853     2.86596
O     -2.38753    -3.38434     1.37726
H     -1.66251    -2.90118     0.90175
H     -3.74602    -5.08324     2.51806
H     -2.45191    -5.66796     3.61573
H     -3.33910    -4.18872     3.99570
C     -3.58728     0.30717     1.32996
C     -4.75954    -0.58812     1.60444
O     -2.51779     0.21401     1.88605
O     -3.85922     1.21337     0.38497
H     -3.05820     1.72765     0.16543
H     -5.23682    -0.87046     0.66829
H     -4.41442    -1.46212     2.14366
H     -5.48943    -0.04917     2.20879
C      0.78337    -2.55535     0.18163
C      1.79377    -2.27492    -0.87932
O     -0.40253    -2.29074     0.03769
O      1.27179    -3.09084     1.27669
H      0.54179    -3.29250     1.90814
H      1.48447    -2.74015    -1.81038
H      1.81931    -1.20668    -1.06514
H      2.77337    -2.62223    -0.57902
C      2.27352     1.60348    -5.23926
C      3.33334     2.08514    -6.18566
O      1.14076     2.05914    -5.24096
O      2.67697     0.66344    -4.40900
H      1.92712     0.37865    -3.82447
H      2.96541     1.99649    -7.20440
H      3.51976     3.13904    -5.99269
H      4.24544     1.51316    -6.05864
C     -0.45093     0.45597    -2.81390
C     -1.45450     0.04440    -1.79204
O      0.64470    -0.08109    -2.91624
O     -0.82977     1.44911    -3.58749
H     -0.10683     1.67734    -4.22769
H     -1.11407     0.38507    -0.81770
H     -2.42272     0.48240    -2.00570
H     -1.51065    -1.03638    -1.74747
C      4.32490     0.59240    -0.96289
C      5.49602     0.50584    -1.89306
O      4.13584    -0.19611    -0.04857
O      3.51196     1.59071    -1.24155
H      2.72626     1.56356    -0.65250
H      6.01566     1.46068    -1.91510
H      6.16876    -0.28109    -1.56808
H      5.13171     0.29477    -2.89551
