 48
-1375.5379615006027
C     -3.82564     3.44833     3.69161
C     -4.17494     3.85306     5.09133
O     -4.61643     3.54797     2.76694
O     -2.59845     2.98502     3.55965
H     -2.41569     2.74220     2.62271
H     -3.36031     3.62413     5.76810
H     -4.38959     4.91876     5.10293
H     -5.08227     3.33539     5.39091
C      5.32955    -0.41379    -1.92330
C      6.14861     0.78512    -2.29457
O      4.53606    -0.92192    -2.70181
O      5.53223    -0.85020    -0.69973
H      4.96433    -1.64517    -0.51326
H      6.86178     1.01941    -1.51304
H      6.65407     0.59377    -3.23699
H      5.47822     1.62724    -2.45164
C     -2.97642     2.16109     0.14256
C     -2.73318     1.52817    -1.18492
O     -2.08027     2.33275     0.97000
O     -4.21108     2.53520     0.34360
H     -4.33726     2.92686     1.25216
H     -1.90516     0.83734    -1.11263
H     -3.61331     0.99839    -1.52883
H     -2.48255     2.31933    -1.88974
C      0.90987     0.63309    -0.06581
C      2.34955     0.45080    -0.43456
O      0.13071    -0.28834     0.07954
O      0.55616     1.89969     0.07940
H     -0.38813     1.95494     0.33624
H      2.89336     1.38635    -0.37607
H      2.79247    -0.28238     0.23014
H      2.40801     0.05525    -1.44291
C      2.99115    -3.26253    -0.87487
C      2.03296    -4.32844    -0.44126
O      3.95008    -2.90975    -0.20463
O      2.69011    -2.73264    -2.04517
H      3.38227    -2.07728    -2.31786
H      1.01875    -3.94654    -0.51031
H      2.12060    -5.18124    -1.11282
H      2.26109    -4.63459     0.57358
C     -2.30942    -2.59418    -1.11664
C     -2.88670    -3.95410    -1.41435
O     -2.82344    -1.54983    -1.42969
O     -1.14208    -2.68408    -0.45862
H     -0.80742    -1.78709    -0.26436
H     -2.15144    -4.55808    -1.94307
H     -3.12688    -4.46397    -0.48237
H     -3.78225    -3.84316    -2.01551
