 80
-2292.586245381271
C     -0.66355    -2.32855    -1.32472
C     -2.09669    -2.32088    -1.74939
O     -0.30446    -2.68226    -0.21201
O      0.17172    -1.92049    -2.25646
H      1.09734    -1.91455    -1.90998
H     -2.22567    -2.88326    -2.67068
H     -2.70678    -2.73282    -0.95783
H     -2.38608    -1.29328    -1.93778
C     -3.55195     0.09901     2.51547
C     -4.11200     1.47335     2.65813
O     -3.70567    -0.58679     1.50366
O     -2.89729    -0.31271     3.56439
H     -2.52670    -1.22953     3.43187
H     -3.30573     2.16160     2.89257
H     -4.60539     1.76695     1.74077
H     -4.81399     1.48448     3.49124
C      4.99406     0.98978     0.78957
C      6.47434     1.17016     0.77921
O      4.44357    -0.03687     1.15764
O      4.32476     2.03389     0.34454
H      3.35898     1.89923     0.46726
H      6.73460     2.18522     1.06476
H      6.93137     0.44611     1.44488
H      6.82046     0.99193    -0.23792
C     -1.14966     3.99085     0.80261
C     -2.18418     4.79744     0.06842
O     -1.20091     3.72822     1.98094
O     -0.16962     3.56610    -0.00578
H      0.44263     2.99701     0.49253
H     -3.12608     4.25102     0.09349
H     -2.33014     5.74353     0.58556
H     -1.88892     4.96936    -0.96054
C      1.21806     0.66117     1.45015
C     -0.22147     0.55123     1.83150
O      1.69234     1.63837     0.87514
O      1.93448    -0.38925     1.76383
H      2.88370    -0.25447     1.52143
H     -0.61558     1.53518     2.06841
H     -0.77305     0.15617     0.98328
H     -0.33531    -0.11860     2.67735
C     -4.75282     0.78618    -1.32637
C     -5.23514     1.14563    -2.69435
O     -4.05760     1.50044    -0.62814
O     -5.15316    -0.41871    -0.92630
H     -4.78026    -0.57858    -0.04332
H     -6.01622     1.89969    -2.60689
H     -4.41188     1.58195    -3.25234
H     -5.62637     0.26702    -3.19546
C     -1.20148     1.55885    -2.26207
C      0.24817     1.61557    -2.63599
O     -2.09933     2.06159    -2.88797
O     -1.41695     0.85522    -1.12669
H     -2.32849     1.04678    -0.83083
H      0.66354     0.61433    -2.68796
H      0.35922     2.11615    -3.59308
H      0.80319     2.15975    -1.87411
C     -2.32306    -3.50520     2.34422
C     -1.84368    -4.91918     2.26521
O     -1.91454    -2.70997     3.17361
O     -3.22567    -3.19946     1.42906
H     -3.44672    -2.23948     1.46355
H     -2.69284    -5.59517     2.20416
H     -1.25630    -5.03121     1.35641
H     -1.22774    -5.14893     3.12681
C      2.99577    -2.73688    -0.35795
C      4.43423    -2.99507    -0.07778
O      2.61142    -1.97798    -1.24487
O      2.17054    -3.37768     0.42570
H      1.23315    -3.13944     0.21652
H      5.03175    -2.75253    -0.94886
H      4.72955    -2.34613     0.74460
H      4.57967    -4.02842     0.22274
C      4.74889     0.74634    -2.58017
C      4.99801     2.06391    -3.25409
O      5.60664     0.02551    -2.13056
O      3.44361     0.46309    -2.49150
H      3.33851    -0.36318    -1.99314
H      4.66485     2.86403    -2.59282
H      6.05775     2.18006    -3.45431
H      4.42638     2.13830    -4.17715
