 72
-2063.323373285551
C      2.41548    -0.29151     2.60676
C      2.42808     0.42814     3.92276
O      1.71678    -1.24434     2.36073
O      3.27415     0.23688     1.72400
H      3.20977    -0.26299     0.88893
H      2.28743     1.49264     3.75936
H      1.63513     0.04421     4.55658
H      3.39259     0.28090     4.40871
C     -4.55846     3.28730     1.45891
C     -5.77548     3.59580     2.27191
O     -4.60549     2.64325     0.42180
O     -3.43639     3.76883     1.95810
H     -2.67172     3.49000     1.41308
H     -6.27978     2.66503     2.51707
H     -5.50481     4.13329     3.17290
H     -6.45937     4.18728     1.66828
C     -1.47355     2.37830    -0.67137
C     -0.30876     1.98033    -1.50618
O     -1.35916     2.76849     0.49789
O     -2.63494     2.25266    -1.24383
H     -3.38764     2.42390    -0.60863
H      0.57318     2.54444    -1.22745
H     -0.11763     0.93171    -1.30299
H     -0.52185     2.10456    -2.56205
C      2.29217     3.24995     1.07100
C      3.49721     3.48724     1.92795
O      2.25585     3.42481    -0.12339
O      1.24084     2.81100     1.77807
H      0.46698     2.72023     1.19845
H      3.20833     3.95485     2.86643
H      3.96780     2.53197     2.14827
H      4.20498     4.11324     1.39358
C     -1.26428    -0.55260     1.62822
C     -1.40846    -1.85391     2.34852
O     -0.77571    -0.42521     0.52795
O     -1.73318     0.48798     2.32916
H     -1.58629     1.30167     1.82299
H     -1.72311    -2.62543     1.65092
H     -0.43438    -2.13428     2.74524
H     -2.12174    -1.75753     3.16244
C     -0.91796    -5.97289    -1.24243
C     -0.32589    -7.32287    -0.95697
O     -0.78916    -5.43170    -2.33156
O     -1.55978    -5.43486    -0.22953
H     -1.96597    -4.56225    -0.49000
H      0.74815    -7.27709    -1.12076
H     -0.54180    -7.62257     0.06186
H     -0.73166    -8.04383    -1.66239
C      3.59455     1.71549    -2.40658
C      4.09727     3.07124    -2.77448
O      2.55085     1.24484    -2.82504
O      4.38648     1.06968    -1.56453
H      3.97047     0.21852    -1.31965
H      3.77558     3.76096    -1.99630
H      5.18175     3.06953    -2.81616
H      3.66453     3.37760    -3.72083
C      1.88748    -1.50845    -1.02936
C      1.19958    -2.70054    -0.46025
O      3.01293    -1.15691    -0.69201
O      1.19526    -0.86969    -1.94114
H      1.67393    -0.06524    -2.27546
H      0.88122    -3.35113    -1.26924
H      1.86691    -3.22187     0.21713
H      0.31626    -2.36551     0.07958
C     -2.23475    -2.47365    -1.89684
C     -2.57756    -1.03019    -2.04266
O     -2.58823    -3.14578    -0.93614
O     -1.49629    -2.94615    -2.87292
H     -1.26491    -3.89750    -2.71026
H     -2.49851    -0.72241    -3.07794
H     -3.56190    -0.82745    -1.63695
H     -1.85941    -0.47399    -1.44516
