 48
-1375.551133809447
C     -1.05512    -2.76325     2.50734
C     -1.76264    -2.76410     3.82371
O     -1.37632    -3.44785     1.55307
O     -0.03754    -1.91010     2.45715
H      0.35439    -1.94381     1.56881
H     -2.62387    -2.10367     3.73738
H     -2.11883    -3.76638     4.04372
H     -1.10642    -2.40104     4.60736
C      1.05047    -2.04298    -1.30386
C      0.13238    -3.12890    -1.75042
O      1.14924    -1.70345    -0.12624
O      1.72597    -1.46049    -2.25811
H      2.26280    -0.70678    -1.89878
H      0.54782    -3.65614    -2.60376
H     -0.05673    -3.79705    -0.91945
H     -0.81078    -2.67070    -2.04247
C     -0.48668     2.04321     1.00865
C     -0.78298     1.62141     2.40906
O     -0.89483     1.43862     0.02923
O      0.26963     3.11729     0.92313
H      0.47955     3.30199    -0.02718
H     -0.92307     2.49298     3.04555
H     -1.65882     0.98166     2.40774
H      0.07209     1.05385     2.77466
C      0.81125     2.62499    -2.50728
C      1.50530     2.74754    -3.82751
O      0.96717     3.43696    -1.60743
O      0.04694     1.56368    -2.40003
H     -0.33447     1.50121    -1.48708
H      2.34068     2.04956    -3.83886
H      0.82769     2.48078    -4.63335
H      1.87881     3.75794    -3.95235
C      3.01538     1.05817    -0.17141
C      3.77912     2.26433     0.26826
O      3.05661     0.62331    -1.31101
O      2.28790     0.51317     0.78133
H      1.84320    -0.30699     0.45711
H      3.08340     3.09863     0.33518
H      4.21109     2.09971     1.25120
H      4.54857     2.49392    -0.45998
C     -3.51239    -1.06443     0.48882
C     -4.24809    -0.10486    -0.40153
O     -3.43133    -0.94349     1.68871
O     -2.92791    -2.04742    -0.20687
H     -2.43833    -2.62982     0.40776
H     -4.63083    -0.61376    -1.28156
H     -5.05149     0.36320     0.15906
H     -3.54747     0.66689    -0.71973
