 64
-1834.0650860692488
C     -5.77718    -1.34740    -0.77742
C     -7.18979    -1.14800    -1.24574
O     -5.37972    -0.94585     0.30618
O     -5.02163    -1.98710    -1.64290
H     -4.08986    -2.07828    -1.30780
H     -7.75894    -0.63536    -0.48008
H     -7.18548    -0.56617    -2.16457
H     -7.63799    -2.11318    -1.46882
C      1.97399     3.76117    -0.07033
C      1.30627     4.90128     0.62131
O      1.37166     2.96301    -0.78301
O      3.26450     3.69169     0.13962
H      3.64919     2.88128    -0.28151
H      1.04679     4.58455     1.63045
H      1.98026     5.74962     0.68463
H      0.38394     5.15612     0.11366
C      0.32859    -2.26228    -2.53718
C     -0.66214    -3.15151    -3.21372
O      1.12524    -2.62794    -1.69439
O      0.25243    -0.99997    -2.94039
H      0.93131    -0.47314    -2.48778
H     -0.35500    -4.18660    -3.10938
H     -1.62978    -3.01630    -2.73511
H     -0.75316    -2.87222    -4.25879
C      3.58443     0.61491    -1.56702
C      4.16337    -0.68204    -2.01439
O      4.21023     1.46620    -0.97175
O      2.29686     0.75627    -1.87601
H      1.94840     1.61199    -1.51747
H      3.96141    -0.83659    -3.06999
H      5.23075    -0.69547    -1.82620
H      3.67208    -1.47458    -1.45217
C     -2.15780    -1.85984     0.38454
C     -0.75021    -2.05216     0.83898
O     -2.54535    -2.17153    -0.73571
O     -2.94167    -1.32947     1.29424
H     -3.86302    -1.21754     0.94902
H     -0.70697    -1.98829     1.91749
H     -0.37982    -2.99932     0.46764
H     -0.14152    -1.26210     0.40896
C      0.98863     0.82615     2.83098
C      0.51008     1.97308     3.66700
O      0.75057    -0.33574     3.05832
O      1.71554     1.22528     1.77836
H      2.08954     0.43782     1.33521
H     -0.28608     2.49166     3.13536
H      0.12664     1.59738     4.61073
H      1.32088     2.67822     3.83747
C     -1.83234     2.42409     0.49435
C     -3.30078     2.15739     0.35630
O     -1.35522     3.35209     1.10040
O     -1.07839     1.50569    -0.13331
H     -0.16494     1.83482    -0.14363
H     -3.53902     1.89853    -0.67170
H     -3.58303     1.31656     0.98591
H     -3.85863     3.03697     0.66310
C      2.65492    -2.24416     1.39567
C      3.10933    -2.51845     2.79372
O      2.68173    -1.14729     0.86887
O      2.22260    -3.33268     0.77443
H      1.81299    -3.08615    -0.07926
H      3.14852    -3.58796     2.97075
H      4.08555    -2.06564     2.95300
H      2.40713    -2.04802     3.47971
