 32
-917.0166479150195
C      0.00629    -2.36027     2.33286
C      0.17338    -2.08030     0.86995
O     -0.93589    -2.03441     3.00979
O      1.05428    -3.03374     2.84791
H      0.86562    -3.16147     3.78592
H      0.54290    -2.94899     0.33362
H     -0.77810    -1.76423     0.46192
H      0.89416    -1.27571     0.73536
C     -2.38955     0.49588     1.70281
C     -2.99520     0.46438     3.06168
O     -2.85373    -0.09003     0.73645
O     -1.28037     1.20972     1.63443
H     -0.93435     1.19634     0.71675
H     -4.06239     0.28402     2.98709
H     -2.53565    -0.35797     3.60724
H     -2.78284     1.39315     3.58100
C      3.15468     1.38116    -2.24115
C      4.65500     1.31876    -2.17065
O      2.52035     1.78158    -3.18467
O      2.59110     0.91985    -1.11201
H      1.62562     1.00757    -1.18692
H      5.00699     1.87234    -1.30247
H      4.97316     0.28446    -2.05255
H      5.07681     1.73551    -3.07804
C     -0.97609     0.70787    -1.89202
C     -0.52127     0.88936    -3.30265
O     -0.27953     1.02570    -0.93004
O     -2.16699     0.18407    -1.76431
H     -2.42557     0.09255    -0.80129
H     -1.31008     0.61188    -3.99277
H     -0.21800     1.92230    -3.44741
H      0.36755     0.28567    -3.46751
