 72
-2063.324035728433
C      1.70357    -4.04350    -0.83991
C      1.92593    -4.72321    -2.14575
O      0.61429    -4.01282    -0.27152
O      2.77594    -3.48972    -0.33310
H      2.55900    -2.98793     0.49177
H      2.39705    -5.68768    -1.95746
H      0.97695    -4.86034    -2.64793
H      2.59707    -4.11943    -2.74730
C      1.57796    -0.46278    -3.26679
C      0.80254    -0.85542    -4.47507
O      1.31696     0.52205    -2.57937
O      2.57266    -1.26755    -2.98203
H      3.07385    -0.91548    -2.19940
H      1.45934    -0.85662    -5.34439
H      0.42457    -1.86465    -4.32689
H     -0.02629    -0.17145    -4.61200
C     -3.43325     3.65722     3.18215
C     -3.97955     4.70349     4.11135
O     -3.81621     3.53234     2.02998
O     -2.50132     2.90243     3.72855
H     -2.18665     2.20461     3.09338
H     -3.15811     5.29196     4.51380
H     -4.67420     5.34110     3.57796
H     -4.48350     4.22112     4.94637
C      1.10725    -2.14319     2.46413
C      0.88104    -1.38016     3.72861
O      2.12558    -2.04810     1.79240
O      0.09819    -2.92551     2.13082
H      0.27789    -3.37841     1.27315
H      0.10849    -0.63343     3.56042
H      0.53379    -2.05985     4.50370
H      1.78802    -0.87520     4.03041
C     -1.99719     1.00641     0.83439
C     -1.45384    -0.03919    -0.07377
O     -1.70102     1.06997     2.01962
O     -2.82370     1.85234     0.25939
H     -3.20711     2.48898     0.91865
H     -0.78074     0.42030    -0.78937
H     -0.92626    -0.76888     0.52184
H     -2.24851    -0.51394    -0.63712
C     -1.81423    -3.05664    -2.68247
C     -3.05513    -2.50881    -3.31231
O     -0.79837    -3.33056    -3.28357
O     -1.92912    -3.19024    -1.35568
H     -1.08500    -3.51110    -0.99925
H     -2.96512    -1.42418    -3.37509
H     -3.15237    -2.90575    -4.31912
H     -3.92332    -2.75422    -2.70761
C      3.32603     0.45588    -0.00940
C      4.01759     0.62556     1.29480
O      3.78271    -0.18563    -0.93392
O      2.14148     1.06750    -0.10376
H      1.77322     0.92114    -1.00776
H      3.50276     0.02546     2.03901
H      5.05033     0.30448     1.20330
H      3.96808     1.66184     1.61423
C     -2.00340     1.77763    -2.90491
C     -3.14371     2.75069    -2.85940
O     -2.11977     0.58044    -3.03840
O     -0.82060     2.39086    -2.77253
H     -0.10840     1.73013    -2.81101
H     -3.27393     3.09171    -1.83498
H     -2.92314     3.61421    -3.48173
H     -4.05019     2.25629    -3.19234
C      1.49155     2.64242     3.10434
C      1.00051     3.67531     4.07790
O      1.93012     1.55792     3.40673
O      1.38645     3.06156     1.83288
H      1.69696     2.35772     1.23961
H      1.34501     4.66164     3.77866
H     -0.08579     3.67684     4.06962
H      1.35269     3.43236     5.07481
