 56
-1604.809177708634
C      3.44430     0.01596     2.58923
C      4.36597    -0.34295     3.71810
O      3.84187     0.42340     1.50754
O      2.16909    -0.13940     2.87449
H      1.62435     0.06860     2.07322
H      5.38575    -0.08473     3.45665
H      4.06167     0.18055     4.62119
H      4.29541    -1.41088     3.91470
C     -1.58664    -2.48472    -2.86705
C     -1.44158    -2.84638    -4.30786
O     -1.15053    -3.18781    -1.95839
O     -2.20137    -1.34891    -2.63929
H     -2.30309    -1.18476    -1.66500
H     -0.40438    -2.67051    -4.58834
H     -1.65065    -3.90441    -4.43738
H     -2.09690    -2.23544    -4.91754
C      0.02245     3.23603     1.79563
C      1.39850     3.52593     2.31113
O     -0.29537     3.42975     0.63308
O     -0.79324     2.73862     2.69797
H     -4.85857     2.33819    -1.18441
H      1.39128     3.62931     3.39016
H      2.04765     2.69452     2.04023
H      1.78806     4.42030     1.83552
C      1.18259     0.75811    -0.38360
C      0.27204     1.07486    -1.52221
O      0.78940     0.46158     0.73462
O      2.45632     0.81708    -0.68794
H      3.00728     0.65991     0.12545
H      0.58326     0.52399    -2.40638
H     -0.74721     0.82244    -1.25610
H      0.32546     2.14133    -1.73818
C     -1.85787    -1.56414     0.83718
C     -1.72343    -1.04120     2.22832
O     -2.39131    -0.93696    -0.06683
O     -1.35685    -2.76989     0.66787
H     -1.39821    -3.02918    -0.28131
H     -0.70167    -0.68655     2.35996
H     -2.40978    -0.21482     2.37161
H     -1.91374    -1.83216     2.95012
C     -3.33263     2.20597     0.28731
C     -4.68592     1.84452    -0.23387
O     -3.06938     2.25124     1.47756
O     -2.45002     2.43844    -0.66523
H     -1.58490     2.72189    -0.27775
H     -1.67501     2.55908     2.28494
H     -4.70392     0.76755    -0.39268
H     -5.44644     2.10772     0.49403
C      2.16814    -2.15431    -2.47795
C      3.66646    -2.14418    -2.42472
O      1.51317    -1.91114    -3.46274
O      1.62297    -2.44306    -1.28524
H      0.66489    -2.55541    -1.39030
H      4.03304    -3.03910    -1.92723
H      4.06743    -2.07614    -3.43091
H      3.98708    -1.28086    -1.84500
