 64
-1834.0666322960465
C     -2.70034     1.60892     0.51242
C     -2.17732     2.79702    -0.22608
O     -2.75233     1.54983     1.73242
O     -3.10080     0.62891    -0.27444
H     -3.42940    -0.13579     0.26497
H     -3.02740     3.34534    -0.63136
H     -1.61248     3.43028     0.44423
H     -1.55673     2.45948    -1.04936
C      0.80451     0.56329     2.40698
C      0.36017     1.68527     3.27496
O      1.62218     0.67839     1.49917
O      0.24372    -0.58941     2.69793
H      0.59317    -1.30665     2.12510
H      0.71805     2.62551     2.87737
H     -0.72445     1.67329     3.31953
H      0.75143     1.52467     4.27936
C      2.84651     2.35948    -3.25812
C      3.94235     3.37685    -3.29437
O      3.01330     1.19389    -3.57408
O      1.69326     2.84810    -2.85268
H      1.05506     2.11093    -2.66689
H      4.27779     3.55193    -2.27371
H      4.77361     3.00767    -3.88587
H      3.56873     4.31416    -3.69602
C      2.00948    -2.30856     0.07669
C      2.37399    -3.38759    -0.88400
O      1.34028    -2.49868     1.08821
O      2.46876    -1.12702    -0.25280
H      2.18716    -0.44480     0.40215
H      3.38432    -3.72665    -0.65044
H      1.67687    -4.21080    -0.78272
H      2.36592    -2.98812    -1.89215
C     -3.59739    -1.56697     2.41748
C     -3.74606    -2.88025     3.12055
O     -3.86501    -1.41737     1.23319
O     -3.15064    -0.60002     3.18647
H     -3.04614     0.23590     2.66166
H     -2.79135    -3.39880     3.09057
H     -4.02992    -2.72339     4.15657
H     -4.48664    -3.47977     2.60383
C     -1.52975    -4.22856     0.05772
C     -2.93555    -4.74782     0.05368
O     -0.81280    -4.16982    -0.91148
O     -1.15346    -3.81041     1.27464
H     -0.25533    -3.44308     1.21376
H     -3.62250    -3.90297     0.08907
H     -3.11704    -5.32344    -0.84838
H     -3.10630    -5.35614     0.93781
C      1.85742     3.93474     0.21860
C      2.32520     5.17896    -0.47713
O      0.80793     3.82376     0.80263
O      2.75200     2.94108     0.10888
H      2.37546     2.15143     0.52587
H      2.13403     5.08110    -1.54524
H      1.78032     6.03873    -0.09864
H      3.39418     5.30854    -0.33053
C      0.23195    -0.32420    -2.62861
C     -0.82049    -1.34166    -2.34186
O      0.13863     0.83635    -2.25801
O      1.26706    -0.78259    -3.29588
H      1.93338    -0.05821    -3.42653
H     -1.74390    -0.84748    -2.07388
H     -0.96308    -2.00370    -3.19066
H     -0.50021    -1.96414    -1.50923
