 32
-917.0165733139404
C      0.66644    -3.88135    -2.03479
C      0.82261    -5.35561    -2.27991
O      1.24092    -3.01277    -2.64255
O     -0.19709    -3.63945    -1.03573
H     -0.29262    -2.67861    -0.93030
H      1.51588    -5.51374    -3.09783
H      1.19059    -5.84036    -1.37726
H     -0.14475    -5.79417    -2.51798
C      0.09833    -0.09620    -0.36590
C      1.39092    -0.28998    -1.07208
O     -0.84054    -0.87801    -0.47001
O      0.02004     0.98085     0.39290
H     -0.90766     1.09381     0.75462
H      1.84210    -1.20756    -0.70074
H      1.18874    -0.45409    -2.12627
H      2.04452     0.55773    -0.90991
C      2.98231     3.12891     1.28356
C      3.86221     4.04565     2.08889
O      3.27101     2.64874     0.21740
O      1.81052     2.89646     1.90481
H      1.27996     2.30678     1.34657
H      4.08586     3.58681     3.05085
H      4.78040     4.23305     1.54404
H      3.34196     4.98225     2.28210
C     -3.42258     0.74942     0.93953
C     -4.78687     1.15976     1.39995
O     -2.40732     1.32839     1.29744
O     -3.41643    -0.28209     0.12318
H     -2.49167    -0.51523    -0.11865
H     -5.54355     0.53315     0.94298
H     -4.83138     1.08126     2.48332
H     -4.94778     2.20337     1.14256
