 48
-1375.5351748011838
C     -1.23284    -0.54920     1.63943
C     -2.14326     0.25814     2.50591
O     -1.56792    -1.48792     0.94403
O      0.03284    -0.13411     1.68493
H      0.56501    -0.69428     1.09546
H     -3.14414    -0.15707     2.47781
H     -1.75534     0.27024     3.52348
H     -2.15782     1.28173     2.13911
C      4.47671     0.31480     0.08573
C      5.58318     1.17462     0.61753
O      4.31082     0.10246    -1.10458
O      3.68808    -0.16609     1.02497
H      2.97260    -0.72199     0.62919
H      5.99181     0.73917     1.52467
H      6.35511     1.29003    -0.13507
H      5.17432     2.15215     0.86645
C      1.50972     3.17674     0.16715
C      1.87611     2.24526    -0.93624
O      0.38145     3.42756     0.53383
O      2.57485     3.73884     0.76853
H      2.23390     4.33250     1.44985
H      1.69573     1.23530    -0.59393
H      1.20940     2.39809    -1.77564
H      2.91384     2.35355    -1.22290
C     -1.63004     0.91727    -1.24975
C     -2.91854     0.30985    -1.70588
O     -0.53340     0.54452    -1.59875
O     -1.83908     1.91235    -0.38434
H     -1.00254     2.34949    -0.13632
H     -3.33860    -0.26244    -0.88037
H     -3.63600     1.08228    -1.97168
H     -2.74030    -0.34776    -2.54899
C      1.56626    -1.80776    -1.28695
C      0.37710    -2.54705    -1.79463
O      1.75547    -1.57802    -0.09385
O      2.39837    -1.41826    -2.21629
H      3.13867    -0.88876    -1.82437
H      0.69165    -3.30267    -2.51151
H     -0.16256    -2.98753    -0.96507
H     -0.26068    -1.82905    -2.30518
C     -4.88554    -2.25649     0.76751
C     -6.17712    -3.01119     0.58968
O     -4.82833    -1.09827     1.10527
O     -3.81646    -3.01267     0.49875
H     -3.00317    -2.49233     0.64321
H     -5.98559    -4.05688     0.37551
H     -6.77386    -2.90667     1.49291
H     -6.73806    -2.55670    -0.22484
