 72
-2063.330002308032
C      5.73676    -0.76628     1.49341
C      7.18986    -0.97186     1.19063
O      4.91822    -1.66963     1.40828
O      5.42402     0.46149     1.85424
H      4.45442     0.53296     2.01869
H      7.72973    -0.03468     1.25898
H      7.59563    -1.69326     1.89581
H      7.28634    -1.39859     0.19586
C     -1.90008     3.45165    -1.02811
C     -3.13161     3.25509    -1.84216
O     -1.84013     3.19770     0.17095
O     -0.87301     3.92140    -1.69558
H     -0.11664     4.10770    -1.08365
H     -4.00880     3.39549    -1.22058
H     -3.13956     3.92366    -2.69704
H     -3.14002     2.22409    -2.18312
C      1.24766     4.00784     1.10710
C      2.47341     4.22284     1.93493
O      1.13432     4.43006    -0.03108
O      0.31578     3.30749     1.71765
H     -0.48913     3.21377     1.14983
H      3.30117     4.49011     1.28763
H      2.28631     5.03007     2.64174
H      2.69504     3.31814     2.49221
C     -3.47266    -5.02150     0.76564
C     -4.56309    -5.91701     1.27729
O     -3.39873    -4.70192    -0.41285
O     -2.62799    -4.60893     1.68253
H     -1.88497    -4.09089     1.26791
H     -4.42160    -6.91129     0.85930
H     -4.54060    -5.95994     2.36008
H     -5.52157    -5.54726     0.92341
C     -3.77299     0.13362     0.44248
C     -4.01412    -1.31452     0.75049
O     -4.38250     0.75891    -0.38977
O     -2.79632     0.65956     1.19244
H     -2.63068     1.56049     0.87535
H     -3.85428    -1.52201     1.80318
H     -5.02068    -1.58904     0.45388
H     -3.31529    -1.92619     0.18386
C     -0.47527    -3.20179    -0.67744
C      0.82383    -2.70826    -1.22157
O     -0.70841    -3.25425     0.52211
O     -1.35248    -3.54180    -1.59624
H     -2.14935    -3.96556    -1.17747
H      1.57369    -2.72317    -0.44261
H      1.12779    -3.30706    -2.07607
H      0.67782    -1.68396    -1.55999
C      2.04398     1.59589    -1.31369
C      2.12797     2.16961    -2.68182
O      1.04768     1.10286    -0.82195
O      3.18493     1.67916    -0.63253
H      3.06748     1.24711     0.22746
H      3.14613     2.10887    -3.05701
H      1.43210     1.64970    -3.33023
H      1.83460     3.21862    -2.62318
C     -1.39969    -0.11613    -3.03498
C     -2.72946    -0.64785    -3.47442
O     -0.39514    -0.16241    -3.69950
O     -1.45468     0.41117    -1.80038
H     -0.57071     0.71573    -1.51769
H     -2.70262    -1.73539    -3.42609
H     -3.52095    -0.27681    -2.83430
H     -2.90371    -0.36186    -4.51044
C      1.97448    -0.33701     2.07996
C      0.51454    -0.10907     2.23495
O      2.79365     0.58349     2.10113
O      2.33105    -1.58109     1.89474
H      3.31422    -1.65715     1.74751
H      0.33058     0.61483     3.02293
H      0.16869     0.32469     1.29913
H      0.00154    -1.04614     2.41726
