 48
-1375.5457603635502
C      0.17189    -0.12248     1.68258
C      0.93052    -0.93234     2.69163
O     -0.11225     1.04324     1.81254
O     -0.16931    -0.83843     0.60431
H     -0.58748    -0.24803    -0.05225
H      1.26286    -1.86603     2.25351
H      1.78435    -0.35737     3.03926
H      0.28531    -1.13441     3.54587
C      5.06340    -0.10408     0.99193
C      6.05984     0.69723     1.77973
O      4.73828     0.20511    -0.14526
O      4.57654    -1.14462     1.63588
H      3.97084    -1.66999     1.04756
H      6.98418     0.76557     1.21208
H      5.67822     1.70797     1.90261
H      6.23717     0.23933     2.74579
C     -0.33341     1.71534    -1.97810
C      0.86779     1.97749    -2.83861
O     -0.72630     0.58583    -1.72168
O     -0.92215     2.79524    -1.51173
H     -1.68599     2.51872    -0.94834
H      1.76245     1.71530    -2.27870
H      0.81782     1.32668    -3.70625
H      0.90731     3.02031    -3.13495
C     -3.05651     1.90545     1.06617
C     -2.55197     3.09418     1.80721
O     -2.88163     1.72783    -0.13262
O     -3.70033     1.04143     1.81677
H     -3.87556     0.23685     1.27526
H     -3.31046     3.46175     2.49377
H     -1.68381     2.77826     2.38256
H     -2.25310     3.86416     1.10375
C      2.39092    -2.03655    -0.92093
C      1.25314    -2.72572    -1.60221
O      2.96695    -2.49876     0.05220
O      2.71607    -0.88348    -1.47123
H      3.48350    -0.46880    -0.99311
H      1.55139    -2.99947    -2.61248
H      0.98227    -3.61265    -1.04109
H      0.40479    -2.04862    -1.66435
C     -3.94029    -1.29098    -0.99817
C     -4.82012    -2.36078    -1.57295
O     -3.84359    -1.06953     0.19547
O     -3.28540    -0.62294    -1.92876
H     -2.63954     0.00176    -1.54678
H     -5.32516    -2.89761    -0.77863
H     -5.54795    -1.90622    -2.24119
H     -4.21338    -3.04580    -2.16083
