 48
-1375.5438840912896
C     -0.37565     3.13905    -1.67217
C     -0.73990     1.68901    -1.71901
O      0.73110     3.59670    -1.79270
O     -1.44730     3.94124    -1.44468
H     -1.10497     4.84108    -1.39746
H     -0.89530     1.33552    -0.70293
H     -1.65999     1.52022    -2.26853
H      0.07265     1.12287    -2.14916
C      1.87029    -3.39686    -1.03161
C      1.49108    -4.80760    -1.33580
O      1.49051    -2.44580    -1.71617
O      2.62677    -3.24633     0.02156
H      2.88473    -2.29126     0.15993
H      1.57399    -4.98226    -2.40486
H      2.11645    -5.49165    -0.77403
H      0.44848    -4.93812    -1.05131
C     -0.30170    -0.32386     2.06420
C      0.43164    -1.54580     2.51996
O      0.25593     0.74383     1.86056
O     -1.58927    -0.51561     1.89202
H     -2.03716     0.33524     1.63597
H      0.12988    -1.78865     3.53786
H      0.17101    -2.38158     1.87674
H      1.49671    -1.35051     2.48909
C     -2.21041     2.88778     1.47147
C     -3.02253     4.14445     1.50894
O     -2.70026     1.78222     1.29886
O     -0.92034     3.08728     1.62495
H     -0.43988     2.22205     1.69928
H     -2.69930     4.80585     0.71034
H     -4.07261     3.90301     1.39039
H     -2.85776     4.65703     2.45419
C      2.91624     0.22168    -0.24887
C      3.30483     1.62020     0.09684
O      3.28296    -0.74171     0.40662
O      2.13457     0.11195    -1.30493
H      1.92627    -0.83579    -1.49511
H      4.38334     1.66295     0.23295
H      2.97474     2.29987    -0.67874
H      2.83425     1.87824     1.04339
C     -1.84369    -2.61894    -0.62926
C     -3.31015    -2.36041    -0.45874
O     -1.25713    -3.58466    -0.20261
O     -1.23646    -1.63960    -1.31234
H     -0.30373    -1.88193    -1.42654
H     -3.44443    -1.48683     0.17635
H     -3.76682    -2.14427    -1.42224
H     -3.78125    -3.22283    -0.00075
