 24
-687.7557008578815
C      0.06892    -1.61383     0.11591
C      1.24682    -2.52664     0.02736
O      0.14272    -0.39870     0.16115
O     -1.08847    -2.26139     0.14137
H     -1.81929    -1.61412     0.18434
H      1.89712    -2.35492     0.88140
H      0.91908    -3.55916    -0.01040
H      1.83417    -2.26896    -0.85009
C      3.57112     0.64437    -0.00455
C      4.72016     1.61682    -0.05112
O      3.70934    -0.55407    -0.01373
O      2.38792     1.26951     0.04272
H      1.66214     0.61343     0.07540
H      5.42845     1.36351     0.73425
H      5.23466     1.50373    -1.00344
H      4.36708     2.63549     0.06456
C     -3.42655     0.76311    -0.00410
C     -2.35312     1.80151    -0.06429
O     -3.27766    -0.42448     0.17640
O     -4.65055     1.28776    -0.18111
H     -5.27970     0.55706    -0.12887
H     -2.33421     2.23723    -1.06195
H     -2.57207     2.59875     0.64347
H     -1.39083     1.35716     0.15464
