 40
-1146.283628582479
C      1.00147    -1.66095     1.30676
C     -0.05997    -2.54221     1.87573
O      1.96837    -2.08958     0.69991
O      0.78580    -0.37615     1.50939
H      1.48031     0.16035     1.05537
H     -0.44764    -2.12536     2.79713
H     -0.87765    -2.59764     1.16179
H      0.32640    -3.54256     2.02907
C      3.58875     0.59433    -0.41832
C      4.56243     1.47405    -1.12675
O      2.65597     1.04447     0.24826
O      3.80411    -0.68622    -0.55185
H      3.10689    -1.22059    -0.07615
H      4.94081     2.21134    -0.42371
H      5.36801     0.88177    -1.54531
H      4.03947     2.02392    -1.90610
C      1.51497     4.03478    -1.55836
C      0.57112     5.15499    -1.89490
O      2.47166     3.71165    -2.21719
O      1.16393     3.41730    -0.41913
H      1.80364     2.70570    -0.25239
H     -0.44286     4.76725    -1.97179
H      0.57982     5.89798    -1.09946
H      0.86964     5.60759    -2.83308
C     -2.22475     0.23737     0.53571
C     -1.79490     1.66102     0.67419
O     -2.01043    -0.43121    -0.46404
O     -2.84718    -0.22865     1.59600
H     -3.18794    -1.14629     1.42791
H     -1.12084     1.74515     1.52179
H     -1.28883     1.97448    -0.22900
H     -2.66395     2.28689     0.86933
C     -3.63781    -3.27269     0.03796
C     -4.28097    -4.61051    -0.18629
O     -3.68332    -2.70772     1.12254
O     -3.02811    -2.78271    -1.01638
H     -2.64258    -1.88385    -0.82360
H     -3.92116    -5.30681     0.56647
H     -5.35508    -4.51047    -0.04912
H     -4.06050    -4.97333    -1.18333
