 32
-917.0161435676262
C     -1.30777    -4.21551     0.05640
C     -1.94877    -5.53345     0.38684
O     -0.14936    -4.08037    -0.25108
O     -2.17497    -3.19588     0.15083
H     -1.71242    -2.36721    -0.05234
H     -1.64223    -6.27167    -0.34918
H     -1.58356    -5.86461     1.35738
H     -3.02895    -5.44013     0.41494
C     -2.62213     2.52878     0.32683
C     -3.59304     3.65554     0.49851
O     -1.43024     2.64650     0.56827
O     -3.16564     1.41200    -0.10871
H     -2.48147     0.70988    -0.18390
H     -3.47970     4.07421     1.49453
H     -3.34866     4.43948    -0.21449
H     -4.60682     3.30763     0.33934
C      4.13715     1.73323    -0.18623
C      5.48391     2.25741     0.23159
O      3.93394     1.01821    -1.13380
O      3.16257     2.15993     0.63971
H      2.32034     1.78873     0.33418
H      5.46713     3.34576     0.24896
H      5.71556     1.91421     1.23861
H      6.23793     1.90601    -0.46321
C     -0.02293    -0.24004    -0.35659
C      0.97995    -1.22659    -0.83301
O     -1.22066    -0.48620    -0.27703
O      0.47041     0.93394    -0.00682
H     -0.26224     1.57134     0.23579
H      0.50374    -1.89798    -1.53859
H      1.83843    -0.71938    -1.25783
H      1.28892    -1.83054     0.01868
