 56
-1604.806009294236
C     -0.09140     1.28667    -3.34295
C     -0.80211     1.59350    -4.62570
O      1.03557     0.86298    -3.26416
O     -0.87124     1.50112    -2.27172
H     -0.38700     1.23051    -1.47685
H     -0.07379     1.78658    -5.40690
H     -1.39044     0.71955    -4.90448
H     -1.47497     2.43905    -4.50894
C     -0.42978    -2.46035     2.07395
C     -0.98404    -3.78058     1.63939
O      0.74876    -2.19766     2.13306
O     -1.38752    -1.57669     2.36709
H     -0.95421    -0.78430     2.73750
H     -1.18799    -3.73553     0.57002
H     -0.25187    -4.56182     1.81953
H     -1.91469    -3.98985     2.15995
C      1.48070     0.36772     0.43376
C      2.08797    -0.86013    -0.14168
O      0.33008     0.73984     0.24482
O      2.31450     1.05270     1.19357
H     -1.17245     4.95147     3.35656
H      1.30932    -1.52697    -0.48904
H      2.71318    -0.57277    -0.98575
H      2.69641    -1.34980     0.61008
C      0.60048    -2.27387    -3.91956
C      1.83808    -2.21452    -4.75732
O     -0.51583    -2.05553    -4.36651
O      0.82644    -2.57857    -2.65735
H     -0.01796    -2.54999    -2.14510
H      1.56862    -2.18629    -5.80659
H      2.38023    -1.30876    -4.49433
H      2.47668    -3.06689    -4.54141
C     -2.26801    -1.46413    -1.61924
C     -3.17941    -0.78995    -0.64509
O     -1.38576    -2.23842    -1.27527
O     -2.49749    -1.14339    -2.87084
H     -1.80214    -1.53819    -3.45922
H     -4.21433    -1.03975    -0.87637
H     -2.92567    -1.10790     0.35816
H     -3.05598     0.28620    -0.73672
C     -0.27090     3.66101     1.95234
C     -0.86285     4.98761     2.31384
O      0.82110     3.28667     2.35312
O     -1.04469     2.93233     1.17436
H     -0.60287     2.09024     0.93408
H      1.87303     1.84735     1.54650
H     -0.10489     5.75949     2.22100
H     -1.71911     5.20300     1.68629
C      1.07594     0.41687     4.28784
C      1.75927    -0.78245     4.86142
O      0.01913     0.39751     3.68906
O      1.74830     1.54626     4.50441
H      1.30514     2.26282     4.02361
H      2.70185    -0.49822     5.31594
H      1.10743    -1.24311     5.60155
H      1.91429    -1.51066     4.06832
