 80
-2292.5860308021083
C      1.62298    -0.18745     2.39370
C      0.20232    -0.16808     2.84533
O      2.06679     0.65540     1.60942
O      2.35286    -1.14256     2.88954
H      3.27630    -1.13868     2.50663
H      0.02245     0.73777     3.41570
H     -0.43845    -0.12906     1.96917
H     -0.03009    -1.05196     3.42972
C     -4.97908     1.82492     1.82067
C     -6.22430     1.06773     1.49948
O     -4.12008     1.39276     2.59057
O     -4.87045     2.97626     1.21126
H     -4.01118     3.42661     1.43702
H     -6.97963     1.73719     1.10181
H     -5.96573     0.31977     0.75044
H     -6.57585     0.55141     2.38781
C     -0.84141    -6.20173    -1.25231
C     -1.80557    -7.34971    -1.14648
O      0.28849    -6.24373    -0.79139
O     -1.34231    -5.15846    -1.88017
H     -0.66082    -4.44410    -1.96242
H     -2.01202    -7.73692    -2.14194
H     -1.37787    -8.12755    -0.52603
H     -2.74412    -6.99789    -0.72618
C     -0.84123     0.97305    -0.45068
C     -2.00342     1.61298    -1.13831
O     -0.58048    -0.20545    -0.46662
O     -0.08473     1.86408     0.20494
H      0.67079     1.40132     0.61574
H     -2.70347     0.85124    -1.46261
H     -2.48594     2.31320    -0.45937
H     -1.62658     2.15896    -2.00159
C      1.42522    -3.13782    -1.22296
C      2.16027    -1.84980    -1.03459
O      0.49587    -3.26297    -2.00916
O      1.87051    -4.12177    -0.47514
H      1.31577    -4.93580    -0.60348
H      2.70156    -1.60769    -1.94404
H      1.44701    -1.04927    -0.87082
H      2.83915    -1.94571    -0.19664
C     -3.27845    -1.43904     0.71917
C     -2.56685    -2.61190     0.12907
O     -3.96163    -0.67192     0.07860
O     -3.07209    -1.29676     2.03567
H     -3.55938    -0.51326     2.33176
H     -1.67164    -2.24526    -0.37048
H     -2.28477    -3.33155     0.88924
H     -3.19322    -3.07668    -0.62519
C      2.40126     3.95449    -2.07851
C      2.89216     5.25164    -1.50439
O      1.51881     3.91348    -2.92406
O      2.99293     2.88820    -1.59138
H      2.63466     2.06997    -2.01406
H      3.26163     5.87942    -2.31184
H      2.05242     5.77060    -1.04729
H      3.67180     5.07554    -0.77217
C     -1.67842     3.62457     2.49976
C     -0.40272     4.36300     2.76105
O     -2.55990     4.07027     1.78410
O     -1.76525     2.45143     3.09779
H     -2.64790     2.04202     2.91112
H      0.31902     4.07439     1.99913
H     -0.57569     5.43175     2.68804
H     -0.00192     4.09805     3.73458
C      5.20115    -0.32777     1.06251
C      6.60465    -0.42001     0.54515
O      4.71730    -1.18547     1.78860
O      4.54530     0.73908     0.66416
H      3.62527     0.72840     1.01720
H      6.70656    -1.33787    -0.02931
H      6.83682     0.43972    -0.07256
H      7.29131    -0.48463     1.38580
C      1.08287     0.73009    -3.61069
C      0.52905    -0.56077    -4.12013
O      2.02831     0.77734    -2.83457
O      0.45378     1.79558    -4.05008
H      0.86390     2.61696    -3.66888
H     -0.27772    -0.39344    -4.82504
H      1.33134    -1.13319    -4.58006
H      0.17622    -1.14636    -3.27157
