 56
-1604.8003040021604
C     -0.06954     0.06149    -2.15893
C      1.02121    -0.75332    -2.77135
O     -1.25614    -0.16240    -2.32993
O      0.35685     1.04599    -1.38565
H     -0.42849     1.54294    -1.04470
H      0.73647    -1.04469    -3.77697
H      1.95778    -0.20893    -2.77417
H      1.15589    -1.65395    -2.17518
C     -0.38662    -1.98063     0.61256
C     -1.35181    -2.92511    -0.01277
O      0.81921    -2.12418     0.63467
O     -0.97186    -0.90629     1.14513
H     -0.27697    -0.32146     1.48778
H     -0.91525    -3.91518    -0.07966
H     -2.27727    -2.95337     0.55354
H     -1.56505    -2.60331    -1.02914
C      1.49281     1.85836     1.41630
C      2.71351     1.35376     0.73703
O      0.76660     1.15889     2.12169
O      1.23848     3.12996     1.21112
H     -1.63520     5.15417     4.85060
H      3.54468     2.02856     0.92475
H      2.93892     0.35366     1.08100
H      2.54054     1.32010    -0.33363
C     -2.57039     1.62419     0.33084
C     -3.53822     0.56889    -0.09058
O     -1.76836     2.17204    -0.40168
O     -2.65166     1.94470     1.61554
H     -1.97061     2.61040     1.80095
H     -3.38787     0.33526    -1.13837
H     -3.36780    -0.32106     0.51142
H     -4.55586     0.91558     0.08968
C     -1.90838    -3.11614    -4.10405
C     -2.45316    -3.96727    -5.22086
O     -1.39749    -3.55938    -3.10253
O     -2.04934    -1.81409    -4.36076
H     -1.70167    -1.27937    -3.61304
H     -2.28877    -5.01346    -4.98972
H     -3.51739    -3.77515    -5.34504
H     -1.96110    -3.70757    -6.15639
C     -0.72611     3.42251     4.01389
C     -1.21034     4.21767     5.19019
O     -0.85685     3.79357     2.84946
O     -0.14650     2.29354     4.34185
H      0.17710     1.81808     3.53414
H      0.43714     3.40000     1.71159
H     -1.95713     3.64268     5.73269
H     -0.38378     4.40229     5.87102
C      4.06780    -2.10583    -0.40095
C      5.50810    -2.47310    -0.64689
O      3.51460    -1.16369    -0.91719
O      3.47461    -2.93656     0.46009
H      2.53845    -2.67435     0.55188
H      6.12588    -1.58507    -0.53103
H      5.82489    -3.25307     0.03678
H      5.61474    -2.81425    -1.67558
