 48
-1375.5459405086187
C     -1.34405     5.13183    -0.54938
C     -1.70699     6.56830    -0.31652
O     -0.79674     4.75657    -1.57614
O     -1.66315     4.32828     0.44271
H     -1.38207     3.39819     0.25297
H     -2.19683     6.68721     0.64267
H     -0.80188     7.16880    -0.35965
H     -2.35671     6.90215    -1.12161
C      2.59165     0.89634    -0.31648
C      2.95109     2.32301    -0.60921
O      1.62842     0.33617    -0.81960
O      3.39234     0.30964     0.53846
H      3.07840    -0.62176     0.69153
H      2.77062     2.91707     0.28384
H      4.00751     2.40081    -0.85241
H      2.34099     2.68681    -1.42548
C     -0.84336     1.41717    -1.24590
C     -0.99555    -0.02446    -1.59432
O     -0.86553     1.84682    -0.09359
O     -0.70427     2.20543    -2.28201
H     -0.70757     3.16389    -2.00964
H     -2.02006    -0.19547    -1.92024
H     -0.32223    -0.28528    -2.40376
H     -0.80728    -0.64896    -0.73388
C     -0.07675    -0.77097     2.39338
C      0.46087    -1.29115     3.68543
O     -0.81736    -1.39254     1.65790
O      0.35378     0.45022     2.10635
H     -0.03233     0.73489     1.25924
H      1.51859    -1.50858     3.55248
H      0.36162    -0.53629     4.46141
H     -0.06490    -2.19725     3.96244
C      1.82748    -2.81192     0.14787
C      1.71852    -4.28914     0.28660
O      2.44909    -2.11186     0.93661
O      1.19443    -2.30770    -0.89321
H      1.28578    -1.32572    -0.89894
H      0.70642    -4.52808     0.61234
H      1.86778    -4.76151    -0.68004
H      2.44109    -4.64285     1.01349
C     -2.16372    -3.97145    -0.34661
C     -2.99473    -4.58950    -1.44470
O     -1.43292    -4.59283     0.38565
O     -2.31524    -2.64227    -0.29618
H     -1.76017    -2.27542     0.41641
H     -4.02300    -4.23968    -1.38384
H     -2.59613    -4.28256    -2.41120
H     -2.95531    -5.66962    -1.36072
