 80
-2292.593779245016
C      4.70787    -2.24719     2.44293
C      4.74496    -3.00306     3.72772
O      4.79553    -1.02194     2.38927
O      4.58066    -2.98862     1.37372
H      4.46488    -2.42125     0.56583
H      3.79872    -2.84099     4.24176
H      4.89537    -4.06107     3.54364
H      5.52977    -2.59703     4.35892
C     -1.48567     1.73924     0.43737
C     -2.70422     0.98181     0.05074
O     -1.09820     1.84169     1.59804
O     -0.84291     2.30066    -0.55540
H      0.04917     2.63152    -0.26203
H     -2.42239    -0.06472    -0.04361
H     -3.44670     1.04267     0.83746
H     -3.07832     1.33398    -0.90405
C     -2.02078    -1.83773    -2.46348
C     -2.85028    -1.92327    -3.70382
O     -2.21186    -2.54570    -1.49051
O     -1.08537    -0.90900    -2.51040
H     -0.54516    -0.92740    -1.67761
H     -2.21837    -1.87509    -4.58353
H     -3.44554    -2.82888    -3.70206
H     -3.51999    -1.06787    -3.73681
C      2.36240     0.05313     4.67007
C      1.36886     0.92096     5.37951
O      2.29362    -1.14992     4.58471
O      3.35607     0.76778     4.12083
H      3.93552     0.15381     3.64133
H      1.79209     1.25792     6.32589
H      1.14548     1.78963     4.76851
H      0.46802     0.34550     5.56631
C      0.19384    -1.85439     0.63640
C      1.21031    -1.96707     1.71962
O      0.26489    -1.01337    -0.24755
O     -0.77871    -2.73180     0.70827
H     -1.36138    -2.67275    -0.09281
H      0.73776    -1.97321     2.69182
H      1.74801    -2.90293     1.59494
H      1.89060    -1.13124     1.64339
C     -2.41662    -1.23427     3.13994
C     -2.31065    -2.52842     3.89115
O     -3.37391    -0.88300     2.49999
O     -1.29177    -0.49882     3.24283
H     -1.40337     0.29983     2.70452
H     -3.22972    -2.70046     4.44690
H     -2.19967    -3.33354     3.16606
H     -1.45174    -2.51459     4.55463
C     -5.56257     0.59878    -5.30855
C     -6.96570     0.20669    -5.67170
O     -4.59726     0.31816    -6.00391
O     -5.47942     1.25621    -4.17313
H     -4.53992     1.50940    -3.96946
H     -6.96012    -0.34123    -6.60579
H     -7.38731    -0.40424    -4.87699
H     -7.58042     1.09918    -5.76129
C      1.89247     3.21139     1.43965
C      3.27080     3.64728     1.81902
O      1.53419     3.05413     0.28238
O      1.09767     3.01058     2.47106
H      0.24275     2.61608     2.16970
H      3.97192     3.32494     1.05658
H      3.28785     4.73505     1.88626
H      3.52897     3.22371     2.78217
C      3.93313    -0.20646    -0.68937
C      3.36327     0.54309    -1.84964
O      4.04943    -1.41919    -0.67331
O      4.29768     0.56878     0.31573
H      4.56162     0.01422     1.08627
H      4.18108     0.82676    -2.51166
H      2.67979    -0.10220    -2.38870
H      2.86172     1.43501    -1.49363
C     -2.00391     1.65864    -4.35119
C     -0.62687     2.11818    -4.00128
O     -2.97109     1.84793    -3.62843
O     -2.07474     1.01563    -5.49705
H     -3.01633     0.79711    -5.72152
H     -0.31739     2.89298    -4.70157
H     -0.61907     2.49658    -2.98736
H      0.05763     1.27981    -4.09766
