 40
-1146.2911747572398
C      0.01966    -2.09784     1.80947
C     -0.99765    -3.05054     2.34762
O      1.10673    -2.45204     1.38342
O     -0.35680    -0.83539     1.83341
H      0.35696    -0.25949     1.46538
H     -1.83534    -3.08473     1.65388
H     -0.55802    -4.03654     2.44103
H     -1.36538    -2.69980     3.30845
C      2.43584     0.26312     0.02576
C      3.10008     1.10155    -1.01275
O      1.55887     0.68570     0.77395
O      2.86726    -0.97581     0.07998
H      2.27703    -1.51748     0.66081
H      2.35183     1.40373    -1.74299
H      3.46761     2.01790    -0.55820
H      3.90221     0.55035    -1.49165
C      0.55790     4.03566    -0.30034
C     -0.30538     5.26453    -0.36622
O      1.58268     3.87326    -0.91287
O      0.03946     3.11606     0.53376
H      0.62585     2.34149     0.53733
H     -1.32952     4.97895    -0.59810
H     -0.31120     5.76050     0.60303
H      0.07937     5.93839    -1.12297
C     -2.65106     0.20256    -0.10758
C     -3.19352     1.20648     0.85970
O     -1.86535     0.48325    -0.99601
O     -3.09038    -1.02506     0.10676
H     -2.55338    -1.65619    -0.42815
H     -4.28187     1.18934     0.84415
H     -2.86114     0.93598     1.86005
H     -2.82140     2.18871     0.59700
C     -0.24369    -2.31993    -1.53486
C      0.79465    -3.31198    -1.94924
O     -1.33201    -2.64193    -1.08601
O      0.12932    -1.06638    -1.68607
H     -0.61269    -0.45513    -1.43922
H      1.18183    -3.05981    -2.93281
H      1.61672    -3.26210    -1.23789
H      0.36801    -4.30796    -1.94569
