 80
-2292.588303599316
C      6.51798    -1.74098     4.62954
C      7.49132    -2.37457     5.58102
O      6.88792    -1.03709     3.70062
O      5.25744    -2.01080     4.88641
H      4.65545    -1.56365     4.23202
H      6.96767    -2.96682     6.32251
H      8.18301    -2.99402     5.01556
H      8.07418    -1.59191     6.06051
C     -6.34444    -0.00971     1.37412
C     -7.76598    -0.44427     1.56322
O     -6.04080     0.94651     0.67571
O     -5.46798    -0.76464     2.00022
H     -4.55306    -0.45857     1.82161
H     -7.83522    -1.14753     2.38491
H     -8.39693     0.42325     1.73450
H     -8.09920    -0.92267     0.64330
C     -4.23974    -0.58302    -2.05681
C     -5.57493    -0.17984    -2.59479
O     -4.11160    -1.42894    -1.18952
O     -3.22940     0.07435    -2.58089
H     -2.37372    -0.26889    -2.20953
H     -5.51045     0.08384    -3.64664
H     -6.28471    -0.98647    -2.44081
H     -5.91118     0.69161    -2.03462
C      4.60029     1.82562    -1.56932
C      5.89818     2.34910    -1.04525
O      4.46677     0.67571    -1.95909
O      3.61335     2.69654    -1.55399
H      2.81262     2.31549    -1.99222
H      6.17323     1.77700    -0.16284
H      6.67116     2.18789    -1.79329
H      5.81336     3.40249    -0.80357
C     -0.85733    -1.97096    -1.03446
C      0.46664    -2.64259    -0.86032
O     -1.00130    -0.95486    -1.69960
O     -1.84305    -2.54736    -0.38893
H     -2.70126    -2.11147    -0.61075
H      1.12176    -2.38888    -1.68462
H      0.88841    -2.25820     0.06550
H      0.33210    -3.71767    -0.76804
C     -0.38291    -1.83013     2.65093
C      0.45074    -2.89969     3.28995
O      0.04752    -1.04827     1.83200
O     -1.65075    -1.83639     3.05680
H     -2.12705    -1.14087     2.57789
H     -0.05751    -3.30488     4.15952
H      0.60924    -3.69431     2.56142
H      1.42216    -2.49162     3.55624
C      1.46214     0.58395    -3.39414
C      0.42407     0.22279    -4.39850
O      1.48900     1.67555    -2.82867
O      2.34320    -0.35327    -3.13712
H      3.12490     0.01523    -2.64130
H     -0.51494     0.07897    -3.87096
H      0.27489     1.04740    -5.08579
H      0.69514    -0.68654    -4.92477
C     -2.69299     1.14407     0.77480
C     -1.30180     1.61933     0.55011
O     -2.98033     0.21922     1.52597
O     -3.60426     1.79861     0.09110
H     -4.51427     1.47218     0.30552
H     -0.63900     1.12225     1.24532
H     -1.00675     1.38633    -0.46998
H     -1.24718     2.69987     0.66244
C      4.01593    -0.11723     2.21840
C      3.04482     0.52197     1.28066
O      3.66834    -0.82895     3.14750
O      5.27570     0.15652     1.94588
H      5.88150    -0.29205     2.59832
H      3.26221     1.58238     1.19365
H      3.16160     0.07088     0.29794
H      2.03532     0.36296     1.63549
C     -1.93479     2.90142    -3.44886
C     -3.30580     3.35243    -3.04655
O     -1.60831     2.62545    -4.57578
O     -1.09277     2.82368    -2.40392
H     -0.23246     2.49201    -2.71521
H     -3.64647     4.11426    -3.74414
H     -3.98029     2.50204    -3.11841
H     -3.31426     3.73172    -2.03107
