 56
-1604.812605315845
C      1.80786     3.22952    -1.41135
C      1.02749     4.29028    -2.13532
O      2.74532     3.43709    -0.68283
O      1.31885     2.00079    -1.64052
H      1.84267     1.36591    -1.12910
H      0.82551     3.98915    -3.16162
H      0.07333     4.43196    -1.62808
H      1.58313     5.22276    -2.11544
C     -4.07960    -4.23981    -0.67664
C     -4.87491    -5.46046    -0.31668
O     -3.73104    -4.01426    -1.82759
O     -3.79044    -3.46070     0.34030
H     -3.29415    -2.65014     0.04145
H     -4.35480    -6.34100    -0.68452
H     -5.01745    -5.51813     0.75611
H     -5.83560    -5.41444    -0.82400
C      0.08272     0.95320     1.99962
C     -0.21547    -0.49229     2.24104
O      1.00759     1.52899     2.55100
O     -0.70935     1.53716     1.12884
H     -0.38541     6.66108     2.12532
H      0.53479    -1.08984     1.72964
H     -0.14272    -0.70510     3.30512
H     -1.19640    -0.75311     1.86039
C      0.86317    -3.06396    -0.76780
C     -0.10695    -4.08661    -1.26069
O      1.54584    -3.22327     0.23123
O      0.89410    -1.96481    -1.49406
H      1.55180    -1.33129    -1.11814
H      0.19766    -5.07871    -0.94808
H     -1.07848    -3.87585    -0.82067
H     -0.20666    -4.02559    -2.33757
C     -2.30348    -1.01478    -1.65281
C     -1.75996     0.33052    -2.00592
O     -2.47911    -1.36738    -0.49368
O     -2.55702    -1.79210    -2.68023
H     -3.01309    -2.62373    -2.38376
H     -2.41330     0.81515    -2.73017
H     -1.67021     0.92298    -1.10380
H     -0.78094     0.20133    -2.45908
C      0.48491     4.73323     1.94604
C      0.59525     6.22692     1.94843
O     -0.33076     4.14790     1.24502
O      1.33732     4.12747     2.73507
H      1.23078     3.14195     2.67773
H     -0.54996     2.51789     1.11965
H      1.30470     6.55010     2.70092
H      0.92574     6.54497     0.96137
C      3.31667    -0.46415     0.63764
C      4.23516     0.56846     1.19442
O      2.59706    -0.27044    -0.33992
O      3.30497    -1.58819     1.30646
H      2.66398    -2.23288     0.90070
H      4.37990     1.36327     0.47404
H      3.76950     0.97629     2.09075
H      5.17947     0.11101     1.48049
