 64
-1834.0651352398122
C     -1.62400    -1.63967     0.85307
C     -0.38134    -1.75910     1.65983
O     -1.80840    -2.26227    -0.19315
O     -2.53078    -0.81859     1.32869
H     -3.26674    -0.70630     0.68131
H     -0.08593    -2.80099     1.72778
H      0.40053    -1.23447     1.11343
H     -0.51426    -1.30801     2.63401
C      3.65551    -1.22563     1.40780
C      4.26597    -2.57764     1.58319
O      3.78448    -0.54714     0.39524
O      2.95072    -0.82126     2.44376
H      2.70735     0.12981     2.35975
H      3.47545    -3.31804     1.48043
H      5.00983    -2.73827     0.81081
H      4.69862    -2.66440     2.57536
C     -4.32972    -0.79446    -1.74783
C     -5.28853    -0.35273    -2.80337
O     -4.34751    -0.34602    -0.60352
O     -3.45750    -1.68586    -2.14173
H     -2.83460    -1.92210    -1.40873
H     -4.77748     0.37209    -3.43377
H     -5.57885    -1.19586    -3.42292
H     -6.15230     0.11487    -2.34493
C      2.83314     2.61437     1.43930
C      2.60595     4.08401     1.51673
O      2.46840     1.82425     2.30487
O      3.45884     2.21960     0.35043
H      3.56759     1.24418     0.34302
H      3.23897     4.59668     0.80187
H      1.55420     4.26208     1.29355
H      2.78878     4.42257     2.53172
C      1.46853    -3.72055    -1.10969
C      2.46188    -4.29050    -2.07732
O      1.71451    -3.43112     0.03896
O      0.27296    -3.53658    -1.67244
H     -0.33618    -3.14699    -1.02209
H      3.33440    -4.64343    -1.53857
H      2.01279    -5.09529    -2.65394
H      2.76201    -3.50393    -2.76880
C     -2.23026     2.27808    -1.52003
C     -1.17602     3.33502    -1.42723
O     -2.45235     1.62084    -2.50864
O     -2.91369     2.12633    -0.37498
H     -3.51284     1.36937    -0.46664
H     -0.23465     2.86592    -1.14413
H     -1.05186     3.81144    -2.39671
H     -1.42519     4.05808    -0.65928
C     -0.92705     2.47130     2.45426
C     -2.38232     2.48917     2.80304
O     -0.38193     3.24727     1.70369
O     -0.27221     1.48075     3.07443
H      0.66338     1.52835     2.81830
H     -2.52021     3.05443     3.72580
H     -2.94006     2.96167     2.00375
H     -2.72473     1.47308     2.96187
C      0.91170    -0.19605    -1.74699
C     -0.03312    -0.25661    -2.89963
O      0.63227     0.20183    -0.63802
O      2.13002    -0.65109    -2.05193
H      2.68511    -0.54951    -1.26349
H      0.29639    -0.98906    -3.62957
H     -1.02465    -0.49337    -2.53404
H     -0.09737     0.72302    -3.36794
