 48
-1375.5435439030193
C     -0.58784    -3.45848     1.57631
C     -1.56485    -3.88135     2.61684
O     -0.87303    -3.21483     0.41443
O      0.66228    -3.38371     2.00721
H      1.22679    -3.02060     1.29923
H     -1.06499    -4.01951     3.56835
H     -2.34527    -3.12691     2.68874
H     -2.03476    -4.80895     2.29419
C      2.62552    -2.35009    -0.85097
C      1.90088    -3.53125    -1.41317
O      2.57560    -2.06681     0.34378
O      3.30902    -1.65954    -1.72065
H      3.77241    -0.88516    -1.29465
H      0.83080    -3.33746    -1.38553
H      2.21979    -3.73369    -2.43079
H      2.08524    -4.38964    -0.77204
C     -0.39501     1.48315    -1.06491
C      0.61640     0.38603    -1.08824
O     -0.49937     2.25049    -0.11979
O     -1.14803     1.55017    -2.13634
H     -1.80086     2.29160    -2.05543
H      1.25297     0.49554    -0.22072
H      0.11213    -0.57432    -1.06023
H      1.20013     0.43283    -2.00068
C     -3.00893     4.27292    -0.91544
C     -4.04002     5.36215    -0.86810
O     -2.94320     3.48685    -1.84873
O     -2.21090     4.23891     0.12849
H     -1.54105     3.50810     0.04327
H     -5.02646     4.91579    -0.96379
H     -3.95978     5.91872     0.05823
H     -3.89631     6.01989    -1.72166
C      4.44241     0.76206     0.52489
C      5.07099     2.01221     1.05717
O      4.38950     0.49203    -0.66503
O      3.95103    -0.02031     1.46513
H      3.51577    -0.80856     1.07006
H      4.34349     2.55952     1.65226
H      5.89946     1.74950     1.71146
H      5.42202     2.62403     0.23560
C     -3.10792    -0.67545     0.65462
C     -3.74376     0.65380     0.35771
O     -3.35831    -1.34410     1.62799
O     -2.22036    -1.01835    -0.28327
H     -1.79936    -1.87211    -0.04110
H     -4.65957     0.75728     0.92861
H     -3.05789     1.44731     0.64509
H     -3.93915     0.75267    -0.70553
