 80
-2292.580201701641
C      0.28707     2.78722    -0.44513
C     -0.71241     3.89258    -0.32228
O      0.41322     1.90898     0.39714
O      1.00162     2.82954    -1.54640
H      1.62819     2.06950    -1.57956
H     -0.20117     4.85312    -0.36903
H     -1.39983     3.83467    -1.16233
H     -1.25047     3.79376     0.61235
C     -4.91176     2.71128    -0.76365
C     -5.82066     3.75029    -0.19189
O     -4.91013     1.55026    -0.35979
O     -4.11968     3.13813    -1.71283
H     -3.49183     2.42162    -2.00535
H     -6.85141     3.44320    -0.35657
H     -5.65768     3.80201     0.88223
H     -5.63713     4.71201    -0.65843
C      4.02373    -4.08010    -2.35283
C      4.54847    -4.13022    -3.74534
O      4.68887    -4.35472    -1.36429
O      2.76533    -3.67764    -2.26924
H      2.46850    -3.68812    -1.33339
H      3.77808    -4.49710    -4.41732
H      4.80060    -3.11142    -4.04043
H      5.43657    -4.75233    -3.78313
C     -0.70087    -1.85936     2.05471
C     -1.79073    -0.83639     2.16796
O     -0.35910    -2.60638     2.93777
O     -0.13341    -1.86555     0.83476
H      0.59777    -2.50466     0.82979
H     -1.50930     0.07769     1.65376
H     -2.69818    -1.21743     1.70695
H     -1.98708    -0.64580     3.21695
C      2.61546    -4.33154     1.23762
C      2.04737    -4.57228     2.59374
O      2.02993    -3.67058     0.37694
O      3.78667    -4.87377     1.03250
H      4.12240    -4.67344     0.11173
H      1.07497    -5.04661     2.48839
H      2.71982    -5.18792     3.18067
H      1.85979    -3.61690     3.07555
C     -5.00132     1.49723     3.26381
C     -5.21426     1.03746     4.66774
O     -4.70028     2.63411     2.94353
O     -5.16374     0.53533     2.36018
H     -5.04805     0.91361     1.47452
H     -5.90028     1.71980     5.16465
H     -5.59863     0.02411     4.67418
H     -4.26096     1.08777     5.19143
C     -1.53728     2.65095     3.97211
C     -0.05925     2.89573     4.09577
O     -2.18117     1.96655     4.72789
O     -2.06030     3.26384     2.89960
H     -3.02742     3.10166     2.88032
H      0.44594     2.49850     3.21763
H      0.13798     3.96545     4.13908
H      0.31467     2.40951     4.99045
C     -2.14330     0.25529    -1.73479
C     -0.89878    -0.54298    -1.94885
O     -2.39948     1.27057    -2.36486
O     -2.93314    -0.21958    -0.78960
H     -3.69200     0.38997    -0.63585
H     -0.55137    -0.42229    -2.96793
H     -0.12716    -0.17403    -1.27649
H     -1.06424    -1.58364    -1.70660
C      3.04377     0.13885    -0.52472
C      4.21238    -0.78382    -0.55191
O      2.60830     0.70063    -1.52777
O      2.50137     0.29337     0.65398
H      1.70993     0.88436     0.60294
H      4.89279    -0.56064     0.26417
H      3.85520    -1.80161    -0.41704
H      4.70957    -0.71720    -1.51046
C      4.40900     0.04566    -4.57029
C      4.97804     0.29835    -5.93778
O      4.60335    -0.95628    -3.92012
O      3.65956     1.06685    -4.14948
H      3.31762     0.87616    -3.25976
H      5.55127    -0.56510    -6.25509
H      4.17352     0.49489    -6.64327
H      5.61616     1.17956    -5.91189
