 40
-1146.2759702856042
C     -1.97091    -2.05100    -2.53647
C     -2.65825    -2.41812    -3.80956
O     -2.37117    -2.35646    -1.42860
O     -0.86019    -1.34821    -2.72789
H     -0.45531    -1.13676    -1.86363
H     -3.66011    -1.99738    -3.80937
H     -2.08694    -2.06522    -4.66052
H     -2.78778    -3.49673    -3.84597
C      0.09270    -0.74080     0.87826
C     -0.95029    -1.67986     1.38887
O      0.42685    -0.65570    -0.28911
O      0.63886     0.00716     1.82889
H      1.30990     0.59897     1.44150
H     -1.03890    -1.59435     2.46593
H     -1.89777    -1.47360     0.90012
H     -0.67363    -2.69282     1.10605
C      3.13522     2.13331     0.06363
C      2.72790     1.32600    -1.12702
O      2.69393     1.91835     1.19125
O      3.99832     3.07888    -0.19779
H      4.24391     3.59776     0.61831
H      3.18892     1.72135    -2.02545
H      3.02845     0.29322    -0.96549
H      1.64608     1.32047    -1.20769
C     -5.64709    -3.81466    -1.67362
C     -6.97142    -4.33978    -1.18541
O     -5.32724    -3.78637    -2.83675
O     -4.87678    -3.38080    -0.66773
H     -4.02917    -3.04548    -1.02212
H     -7.76323    -3.70361    -1.57660
H     -7.12532    -5.33736    -1.59042
H     -7.00519    -4.35604    -0.10162
C      4.33785     4.30929     3.06801
C      4.80714     5.14104     4.22160
O      4.70732     4.50839     1.92176
O      3.49715     3.35045     3.40609
H      3.21725     2.84003     2.61376
H      4.56529     6.18269     4.02674
H      4.34417     4.80783     5.14299
H      5.88957     5.06679     4.29036
