 32
-917.016275607861
C     -0.18836    -3.63123    -0.60347
C      0.97635    -2.68519    -0.56763
O     -1.01661    -3.77263     0.26010
O     -0.22244    -4.34252    -1.74903
H     -0.99753    -4.91515    -1.69444
H      0.95703    -2.03869    -1.44237
H      0.92363    -2.09021     0.33486
H      1.90970    -3.24671    -0.58900
C     -2.06401    -1.04861     1.62840
C     -2.50146    -2.08987     2.59837
O     -2.78244    -0.58899     0.75447
O     -0.80768    -0.67067     1.79416
H     -0.56275    -0.00159     1.11613
H     -3.58476    -2.12454     2.63623
H     -2.11955    -3.04770     2.25055
H     -2.07933    -1.88197     3.57721
C      2.73748     3.37320     0.06849
C      4.19454     3.74011     0.13535
O      1.82086     4.12098     0.29662
O      2.57379     2.08978    -0.29680
H      1.62450     1.87370    -0.27120
H      4.66899     3.54515    -0.82485
H      4.29255     4.78759     0.39649
H      4.69420     3.12309     0.88034
C     -0.87799     1.51123    -0.99694
C     -0.46995     2.56137    -1.98130
O     -0.08526     1.05308    -0.17486
O     -2.12092     1.13264    -1.08195
H     -2.35675     0.45952    -0.37109
H      0.47679     2.27031    -2.42815
H     -1.23440     2.70045    -2.73840
H     -0.29403     3.48840    -1.43899
