 80
-2292.5775155483066
C      2.55583     1.85487    -4.90413
C      3.17825     2.48665    -6.11408
O      1.45740     1.32217    -4.93553
O      3.30305     1.92433    -3.82110
H      2.82182     1.54899    -3.05049
H      3.23975     1.74622    -6.90744
H      2.53202     3.28727    -6.46500
H      4.16223     2.87197    -5.87443
C     -3.99838    -0.98527    -0.54441
C     -4.70217    -0.47449     0.67437
O     -3.40316    -0.29936    -1.35196
O     -4.09850    -2.30782    -0.66781
H     -3.68011    -2.59523    -1.50672
H     -4.65614    -1.22186     1.45862
H     -4.23664     0.44816     0.99844
H     -5.74674    -0.28941     0.42104
C     -2.34474    -4.49653     0.88232
C     -2.87568    -5.56380    -0.00987
O     -2.77427    -4.26338     1.99208
O     -1.33407    -3.80806     0.34942
H     -0.98807    -3.15647     1.00885
H     -3.29861    -5.09732    -0.89710
H     -2.06555    -6.21743    -0.32623
H     -3.63965    -6.13687     0.50606
C      1.44224     3.11571     4.14166
C      1.36187     3.88358     5.43479
O      1.28339     3.61123     3.05099
O      1.69654     1.81708     4.34057
H      1.73880     1.38008     3.46604
H      0.49704     3.54852     6.00652
H      2.24915     3.70119     6.03829
H      1.26743     4.94290     5.22029
C     -1.28831    -1.46022     2.90167
C     -0.98169    -0.13909     3.52480
O     -0.47896    -2.08898     2.22187
O     -2.50079    -1.89729     3.13445
H     -2.62741    -2.80130     2.74553
H     -0.32026     0.42366     2.88249
H     -1.90128     0.41798     3.67189
H     -0.49013    -0.29888     4.48325
C     -1.60506     1.96581     0.28929
C     -0.75527     3.12850     0.68844
O     -1.92450     1.07402     1.04988
O     -1.97212     2.00469    -0.99184
H     -2.53308     1.22835    -1.19009
H     -0.51601     3.74744    -0.16711
H     -1.27151     3.71698     1.44395
H      0.15007     2.76706     1.16206
C      3.27237     3.75426     0.43117
C      3.29044     5.11433     1.05998
O      4.05636     2.87014     0.67682
O      2.26346     3.60969    -0.44670
H      2.33037     2.72493    -0.82749
H      3.08116     5.87853     0.31428
H      2.51728     5.15212     1.82366
H      4.25920     5.28089     1.52062
C     -1.66350    -3.26457    -3.23011
C     -1.23583    -2.82879    -4.59540
O     -2.81728    -3.37661    -2.86405
O     -0.63518    -3.51981    -2.42480
H     -0.96419    -3.77762    -1.54560
H     -2.10582    -2.72195    -5.23298
H     -0.71271    -1.87984    -4.51401
H     -0.54629    -3.56023    -5.00891
C      0.84569     0.28365    -1.81827
C      0.24423    -0.40691    -0.64930
O      1.85768     0.97435    -1.74789
O      0.21176     0.07650    -2.94920
H      0.64954     0.55983    -3.69942
H     -0.82701    -0.47431    -0.78021
H      0.66523    -1.40862    -0.60018
H      0.46086     0.13431     0.25917
C      2.67533    -0.39397     1.87309
C      4.05162    -0.17950     1.35410
O      1.84058     0.48692     1.99935
O      2.40389    -1.65085     2.19991
H      1.46106    -1.71580     2.43405
H      3.99597     0.43382     0.46019
H      4.62347     0.40320     2.07339
H      4.54289    -1.12631     1.16198
