 64
-1834.0604067441307
C     -1.01066     1.19801    -0.40218
C      0.29790     1.72262     0.08887
O     -1.90454     0.82637     0.33310
O     -1.11486     1.13392    -1.71286
H     -2.03480     0.85927    -1.95917
H      0.84841     2.20278    -0.71334
H      0.13926     2.40756     0.91687
H      0.86952     0.87946     0.47324
C      4.07375     1.96253     1.49542
C      4.08064     3.22300     2.29124
O      4.29982     0.85758     1.98264
O      3.77873     2.11672     0.22388
H      3.89442     1.27588    -0.27966
H      3.14348     3.25978     2.84674
H      4.89917     3.19689     3.00458
H      4.15147     4.08062     1.63207
C      1.31282    -0.41430    -3.33016
C      0.28824    -0.10877    -4.36930
O      1.40488    -1.47394    -2.73663
O      2.14416     0.59216    -3.08683
H      2.81112     0.29194    -2.44929
H      0.77802     0.15187    -5.30523
H     -0.35962    -0.96715    -4.49894
H     -0.29511     0.74793    -4.04315
C      4.52115    -1.25966    -0.63802
C      4.61395    -2.50628    -1.45315
O      4.22118    -0.17416    -1.13155
O      4.78194    -1.41465     0.63550
H      4.63494    -0.57533     1.13732
H      3.64367    -2.69818    -1.90405
H      5.32889    -2.34883    -2.25696
H      4.91835    -3.34048    -0.83194
C     -4.12408     0.07940     2.59769
C     -5.38561     0.05124     3.42680
O     -3.21723    -0.70510     2.75194
O     -4.12224     1.05282     1.68862
H     -3.29073     1.00444     1.16959
H     -6.04052     0.87290     3.15950
H     -5.88996    -0.90025     3.26795
H     -5.11577     0.10483     4.47959
C     -4.54626    -0.18303    -2.32660
C     -5.97333     0.22931    -2.55158
O     -3.61997     0.60866    -2.33857
O     -4.40413    -1.47140    -2.10557
H     -3.44467    -1.70244    -2.00775
H     -6.02617     1.30053    -2.70680
H     -6.37349    -0.29302    -3.41832
H     -6.57158    -0.05351    -1.68830
C      0.97938     0.77327     3.26027
C     -0.38939     0.36062     3.69379
O      1.31532     1.92385     3.09735
O      1.80674    -0.26278     3.05744
H      2.67998     0.07351     2.80169
H     -0.48049    -0.71486     3.78717
H     -0.61706     0.84317     4.64108
H     -1.12056     0.71011     2.97404
C     -1.35783    -2.16351    -0.78810
C     -2.13179    -2.58266     0.41692
O     -1.84317    -2.05027    -1.90271
O     -0.08366    -1.90848    -0.54492
H      0.41160    -1.75714    -1.38146
H     -2.34731    -1.71603     1.03957
H     -3.06752    -3.03779     0.10920
H     -1.55026    -3.27870     1.01709
