 64
-1834.0615680220103
C     -4.87338    -1.89722    -0.27191
C     -6.23811    -2.43316    -0.58481
O     -4.60539    -1.31561     0.77085
O     -4.00212    -2.11157    -1.23185
H     -3.10637    -1.82405    -0.95822
H     -6.59657    -1.98767    -1.50961
H     -6.17581    -3.50786    -0.73847
H     -6.91542    -2.20964     0.22976
C      3.04579     2.16814     0.55569
C      2.57009     3.57758     0.52483
O      2.75905     1.38181     1.45373
O      3.80722     1.83005    -0.46031
H      4.03869     0.87133    -0.43044
H      3.42425     4.25233     0.56072
H      2.03930     3.73822    -0.40837
H      1.90353     3.74588     1.36070
C      1.69258    -2.46287    -1.96159
C      0.53799    -2.78123    -2.85866
O      2.00925    -3.11917    -0.99875
O      2.34999    -1.35672    -2.33496
H      3.07208    -1.19092    -1.70521
H      0.20242    -1.88241    -3.36166
H      0.86630    -3.51284    -3.59916
H     -0.26286    -3.21677    -2.26740
C      4.26536    -1.52211     0.60537
C      4.76746    -2.92466     0.66054
O      4.36669    -0.81930    -0.39984
O      3.68483    -1.09697     1.69690
H      3.36326    -0.16499     1.60465
H      5.70717    -2.99804     0.12170
H      4.87153    -3.24681     1.69048
H      4.03110    -3.54852     0.15470
C     -1.13744    -1.75367     1.01586
C      0.29049    -1.43387     1.29580
O     -1.53920    -2.33747     0.03289
O     -1.96816    -1.31879     1.96852
H     -2.87861    -1.51973     1.69136
H      0.52934    -1.60482     2.34068
H      0.93102    -2.02284     0.65536
H      0.46312    -0.37938     1.09559
C     -2.82315     1.51357    -0.21793
C     -2.28266     2.88427    -0.42039
O     -2.50001     0.53282    -0.86557
O     -3.70183     1.43721     0.77675
H     -3.98984     0.50944     0.86785
H     -1.98263     3.01546    -1.45420
H     -3.01963     3.62358    -0.12009
H     -1.39853     2.99293     0.20885
C     -0.54212     2.10351     3.02724
C     -1.70906     1.77765     3.91220
O     -0.53028     3.00746     2.22520
O      0.48742     1.26239     3.20429
H      1.20672     1.51456     2.60282
H     -1.40617     1.12796     4.72757
H     -2.14901     2.69819     4.28718
H     -2.46132     1.27131     3.31272
C      0.53733     1.43989    -2.46999
C      1.56335     1.48609    -3.56061
O      0.63332     2.00919    -1.40812
O     -0.51995     0.69731    -2.80876
H     -1.17720     0.70480    -2.08391
H      1.15739     2.00805    -4.42774
H      2.44314     2.00366    -3.19561
H      1.82043     0.47586    -3.86106
