 64
-1834.066887152442
C     -5.74349    -2.50509    -2.22207
C     -6.92509    -1.64825    -2.58365
O     -5.22883    -3.31773    -2.94770
O     -5.31415    -2.25269    -0.97479
H     -4.55873    -2.83468    -0.79269
H     -7.75103    -1.85129    -1.90427
H     -6.66132    -0.59776    -2.47714
H     -7.22138    -1.85684    -3.60490
C      3.49285    -0.70633    -0.70444
C      2.64166    -1.48598    -1.65500
O      4.57370    -0.23388    -1.01311
O      2.95909    -0.57674     0.49626
H      3.38912     0.16239     0.99381
H      3.26038    -1.91202    -2.43931
H      2.09083    -2.25013    -1.11666
H      1.92571    -0.79504    -2.09938
C     -2.33984    -4.59919    -1.01622
C     -3.01162    -5.59025    -1.90461
O     -2.96337    -3.80700    -0.31194
O     -1.03242    -4.64927    -1.03040
H     -0.63727    -3.96793    -0.42260
H     -3.47624    -6.35035    -1.27811
H     -3.79776    -5.09446    -2.46547
H     -2.28623    -6.05014    -2.56612
C      4.84474     2.28222     1.13843
C      5.19002     3.62725     1.69283
O      3.99978     1.55276     1.63887
O      5.52712     1.96303     0.06315
H      5.22185     1.09093    -0.30039
H      4.82322     3.70295     2.70939
H      6.26415     3.79107     1.65543
H      4.70034     4.37810     1.07428
C      0.41561     3.04190     1.87453
C      1.66680     3.79940     2.17893
O      0.25148     2.43540     0.81421
O     -0.47718     3.06496     2.82600
H     -1.26779     2.50054     2.59756
H      2.47850     3.08342     2.30217
H      1.91175     4.42147     1.32484
H      1.54375     4.39139     3.07992
C     -2.85980     1.22345     1.09976
C     -4.18015     0.58962     0.80916
O     -2.50801     1.52317     2.23029
O     -2.11353     1.43022     0.03362
H     -1.25765     1.85306     0.28717
H     -4.21908     0.26521    -0.22242
H     -4.31530    -0.25600     1.47689
H     -4.96890     1.31278     1.01358
C     -0.58109    -2.04441     1.29702
C      0.11091    -1.07927     2.20097
O      0.01523    -2.83318     0.58302
O     -1.89889    -1.95376     1.33020
H     -2.30306    -2.63496     0.74152
H      1.17505    -1.10527     2.02471
H     -0.27156    -0.08335     2.00922
H     -0.11106    -1.33010     3.23451
C      3.04925     3.20519    -1.51291
C      3.84082     3.04301    -2.77115
O      3.11719     4.15203    -0.76468
O      2.26134     2.15288    -1.26830
H      1.71606     2.34542    -0.48814
H      4.62744     2.31054    -2.59338
H      3.21205     2.67168    -3.57661
H      4.29001     3.99200    -3.04393
