 72
-2063.3246110387245
C      1.20003    -0.96854    -0.49345
C     -0.03519    -1.51990     0.13648
O      1.33747     0.21307    -0.77296
O      2.13184    -1.86676    -0.71500
H      2.88659    -1.45714    -1.21172
H     -0.76651    -0.73289     0.25393
H     -0.43503    -2.32263    -0.47956
H      0.21189    -1.94269     1.09943
C     -1.88534     4.33970    -0.58478
C     -2.08158     5.47417     0.36763
O     -1.35211     4.44857    -1.67414
O     -2.32841     3.17573    -0.12695
H     -2.20561     2.49127    -0.80692
H     -2.82312     5.21685     1.11602
H     -1.12615     5.67580     0.84840
H     -2.37875     6.36087    -0.18603
C     -3.39207    -1.99670    -0.81456
C     -3.93735    -3.11713     0.01141
O     -3.08571    -2.11715    -1.99069
O     -3.27974    -0.86099    -0.15276
H     -2.90263    -0.16168    -0.73177
H     -3.97885    -4.02746    -0.57712
H     -3.30765    -3.26020     0.88391
H     -4.93300    -2.85273     0.35920
C     -1.24207    -2.96144     3.66683
C     -1.50390    -4.40356     3.95379
O     -0.15450    -2.43218     3.88950
O     -2.24668    -2.31493     3.13635
H     -2.03103    -1.34555     3.02173
H     -2.56893    -4.59117     4.03964
H     -1.09954    -4.97006     3.11488
H     -0.97471    -4.69906     4.85433
C     -1.54819     0.66635    -2.86891
C     -0.67457     1.65102    -3.56981
O     -2.12233     0.91904    -1.81030
O     -1.64482    -0.49763    -3.45296
H     -2.22317    -1.11164    -2.91853
H      0.34832     1.49143    -3.23336
H     -0.71175     1.50135    -4.64617
H     -0.97368     2.65735    -3.30021
C     -0.48328     0.64918     2.67349
C     -0.22960     1.99635     2.08763
O     -1.60129     0.16920     2.78366
O      0.60356     0.01701     3.07496
H      0.36573    -0.86368     3.44019
H     -1.13700     2.58274     2.12929
H      0.58811     2.49646     2.59325
H      0.05681     1.88527     1.04418
C      4.04620     0.42911    -2.61094
C      5.12647     0.90956    -3.53510
O      4.03805    -0.68726    -2.12128
O      3.11291     1.33390    -2.37781
H      2.42295     0.96893    -1.77062
H      5.87636     0.13675    -3.65590
H      4.69444     1.16596    -4.50035
H      5.57881     1.80943    -3.12403
C      1.76813     4.40095    -0.40773
C      3.26381     4.34107    -0.26717
O      1.00304     4.53469     0.51906
O      1.38610     4.27003    -1.68195
H      0.41236     4.33386    -1.73621
H      3.62188     3.41109    -0.69941
H      3.71740     5.16717    -0.81216
H      3.53168     4.39975     0.78281
C      1.53018    -4.34597     1.53877
C      2.55357    -5.14582     0.78719
O      0.34468    -4.34572     1.30074
O      2.08586    -3.62030     2.51769
H      1.39155    -3.15543     3.01407
H      2.06434    -5.94765     0.24350
H      3.05704    -4.49065     0.07811
H      3.29853    -5.53839     1.47447
