 72
-2063.328651477262
C      3.94788     1.58391    -0.21738
C      4.57908     2.92658    -0.03114
O      3.06311     1.38323    -1.03568
O      4.41717     0.65092     0.57837
H      3.89784    -0.18187     0.45543
H      4.71581     3.40076    -0.99841
H      3.89914     3.54502     0.55156
H      5.52282     2.83357     0.49435
C      0.29517     5.13124     0.94895
C      0.47894     6.50552     1.52847
O      1.21558     4.34966     0.78500
O     -0.95557     4.86611     0.63271
H     -1.05588     4.00954     0.16775
H      0.81287     6.41143     2.56017
H      1.26043     7.02354     0.97782
H     -0.45002     7.06150     1.48890
C     -4.90599     2.02820    -2.41356
C     -6.34184     1.60394    -2.49816
O     -4.19262     2.16890    -3.39350
O     -4.49343     2.22958    -1.17706
H     -3.56267     2.55258    -1.15954
H     -6.51730     0.76706    -1.82678
H     -6.97821     2.42530    -2.17507
H     -6.58370     1.33173    -3.51833
C     -1.13435    -5.32333     0.66110
C     -0.68895    -6.67710     1.10609
O     -1.30070    -4.39029     1.44758
O     -1.31627    -5.20514    -0.62726
H     -1.63184    -4.29371    -0.87891
H     -1.28078    -6.98890     1.96273
H     -0.77555    -7.38613     0.29098
H      0.34833    -6.59646     1.42623
C     -1.14109     2.72874    -2.06749
C      0.34148     2.82037    -1.92053
O     -1.92022     3.04441    -1.17289
O     -1.54807     2.30518    -3.23710
H     -2.54084     2.30867    -3.30250
H      0.84471     2.27338    -2.70975
H      0.62703     3.87090    -1.96105
H      0.64798     2.43779    -0.95578
C     -1.85010    -1.76722    -0.54654
C     -1.85261    -0.38031    -1.09028
O     -2.01530    -2.74867    -1.25298
O     -1.64271    -1.85292     0.75446
H     -1.61625    -2.79577     1.03905
H     -0.90998    -0.22675    -1.60905
H     -2.65210    -0.30028    -1.82045
H     -1.95241     0.34957    -0.30205
C      2.18291    -1.72050    -0.75287
C      1.67154    -3.10095    -1.00636
O      2.89126    -1.44546     0.20391
O      1.78324    -0.82297    -1.62986
H      2.22843     0.04321    -1.44617
H      2.47986    -3.82303    -0.97202
H      0.99730    -3.36884    -0.20206
H      1.14817    -3.14597    -1.95215
C      0.53079     1.21332     1.77198
C      0.40453    -0.00912     2.62713
O     -0.24349     1.52000     0.89079
O      1.60804     1.94580     2.06397
H      1.53441     2.78866     1.57496
H      0.52420     0.25350     3.67676
H     -0.56011    -0.46858     2.46239
H      1.18638    -0.71721     2.36622
C      1.95762    -3.93553     2.51363
C      3.22835    -3.44138     3.13569
O      1.89357    -4.78918     1.65994
O      0.88181    -3.30141     2.99542
H      0.09446    -3.65216     2.54813
H      3.43524    -2.43790     2.76749
H      3.12515    -3.38664     4.21697
H      4.04500    -4.09862     2.85935
