 24
-687.7589486507676
C     -1.91396    -3.03796    -0.00870
C     -0.45878    -2.84545     0.29513
O     -2.80355    -2.27030     0.25603
O     -2.15018    -4.20591    -0.64852
H     -3.10118    -4.23179    -0.80988
H     -0.02583    -3.76676     0.68004
H      0.06837    -2.57618    -0.61940
H     -0.33880    -2.03146     0.99991
C      2.79246     2.00171    -0.16111
C      4.25772     2.30292    -0.28891
O      1.96948     2.87493     0.06594
O      2.48877     0.73030    -0.30929
H      1.51075     0.58684    -0.20343
H      4.39158     3.11632    -0.99686
H      4.62796     2.64385     0.67522
H      4.80141     1.42083    -0.60701
C     -0.95708     1.18582     0.11918
C     -2.41794     0.88516     0.19139
O     -0.10680     0.31420    -0.02653
O     -0.66836     2.46350     0.22518
H      0.31195     2.61531     0.16902
H     -2.97932     1.80114     0.33182
H     -2.71913     0.37980    -0.72215
H     -2.60118     0.18241     0.99827
