 40
-1146.2830608792926
C      1.72050    -4.01351    -1.68883
C      2.10565    -5.37877    -1.19075
O      2.05182    -3.53885    -2.74575
O      0.95615    -3.36498    -0.79380
H      0.69026    -2.50667    -1.16457
H      2.73862    -5.86642    -1.92333
H      2.62980    -5.28966    -0.24074
H      1.20975    -5.97253    -1.01688
C      0.51601     0.06719    -1.80139
C      1.98217    -0.04255    -1.55216
O     -0.24858    -0.88232    -1.64738
O      0.10721     1.24980    -2.17907
H     -0.85805     1.24360    -2.42882
H      2.37320    -0.87771    -2.12947
H      2.48445     0.88366    -1.81311
H      2.12727    -0.26618    -0.49784
C     -0.91590     1.40576     1.75467
C     -2.00428     1.09449     0.77610
O     -1.11538     2.01083     2.79440
O      0.26790     0.96793     1.37818
H      0.95896     1.19178     2.06197
H     -2.97396     1.27367     1.22589
H     -1.88870     1.73060    -0.09748
H     -1.91513     0.06588     0.44285
C     -3.21310     0.33000    -2.72139
C     -4.65630     0.40768    -3.11853
O     -2.44721     1.27886    -2.80636
O     -2.85700    -0.84886    -2.25615
H     -1.88995    -0.87727    -2.05758
H     -5.28009     0.12551    -2.27349
H     -4.89297     1.41293    -3.44468
H     -4.85015    -0.30131    -3.92043
C      1.90257     2.24376     4.19684
C      3.02119     2.58765     5.13684
O      2.08985     1.58764     3.18112
O      0.72814     2.70395     4.56019
H      0.02641     2.44786     3.90277
H      3.46369     1.66682     5.50886
H      3.79248     3.12133     4.58716
H      2.65234     3.19049     5.95831
