 64
-1834.0657646818227
C     -4.61338    -1.92553     3.07649
C     -5.31333    -2.89958     3.98028
O     -3.47358    -2.12067     2.67508
O     -5.32615    -0.86852     2.76242
H     -4.81288    -0.24742     2.17448
H     -4.70129    -3.06849     4.86268
H     -6.28950    -2.52053     4.25913
H     -5.41077    -3.85233     3.46478
C      1.80148    -0.75942     2.90957
C      1.08205    -1.00233     4.19462
O      1.45538     0.10886     2.10646
O      2.82380    -1.54321     2.70050
H      3.25209    -1.34530     1.82151
H      0.01303    -1.03804     3.99875
H      1.43011    -1.92168     4.65459
H      1.24456    -0.15740     4.85844
C      1.36566     2.68392    -3.04093
C      0.42978     3.50795    -3.86531
O      2.45865     2.29564    -3.41117
O      0.87995     2.38328    -1.84818
H      1.49981     1.79324    -1.39063
H     -0.11078     4.20841    -3.23658
H      0.97893     4.02379    -4.64485
H     -0.29004     2.83159    -4.32418
C      3.52421    -0.25154    -0.49198
C      4.18718    -0.11737    -1.81391
O      3.85875    -1.05017     0.35916
O      2.49395     0.57531    -0.30602
H      2.09816     0.41779     0.58666
H      5.22400    -0.43135    -1.73962
H      3.67043    -0.78465    -2.50193
H      4.10189     0.89871    -2.18107
C     -2.95180     0.44498     0.59489
C     -2.36999     1.29507    -0.49097
O     -3.96070     0.75271     1.21113
O     -2.27920    -0.66449     0.83018
H     -2.70808    -1.20360     1.54810
H     -1.79733     0.67983    -1.17603
H     -3.16603     1.82698    -1.00734
H     -1.70012     2.02013    -0.03156
C      0.75919    -1.85014    -1.67472
C      0.42042    -2.51256    -0.37187
O      1.73595    -2.12249    -2.33570
O     -0.11426    -0.90353    -2.01742
H      0.13055    -0.53046    -2.88999
H      0.42684    -3.59188    -0.50048
H      1.19137    -2.26592     0.35245
H     -0.53819    -2.17638     0.00390
C     -1.23226     1.98540     3.90838
C     -2.46510     2.84317     3.95356
O     -0.63142     1.57525     4.86884
O     -0.86807     1.71732     2.64223
H     -0.06324     1.17155     2.65112
H     -3.25182     2.39626     3.35337
H     -2.78559     2.95411     4.98429
H     -2.24049     3.82478     3.53702
C      1.56714    -0.45961    -4.99760
C      1.54640    -1.69040    -5.84397
O      0.58411    -0.00362    -4.43878
O      2.77481     0.06710    -4.89656
H      2.76108     0.84803    -4.30162
H      0.56620    -1.82650    -6.28951
H      2.32081    -1.63333    -6.60148
H      1.75719    -2.53891    -5.19464
