 40
-1146.2798265733995
C     -0.92723    -2.54702    -1.95157
C     -1.38993    -3.95942    -2.06597
O     -1.59888    -1.57197    -2.24672
O      0.31243    -2.43031    -1.49449
H      0.53840    -1.49019    -1.39530
H     -0.55431    -4.63757    -1.94102
H     -2.13728    -4.13657    -1.29522
H     -1.86828    -4.10220    -3.03206
C      3.87596     1.00212     1.44759
C      4.90253     0.86980     2.53173
O      3.65347     2.05062     0.86132
O      3.23427    -0.12052     1.19530
H      2.57914     0.00051     0.46954
H      4.43093     0.49035     3.43507
H      5.65810     0.14891     2.22784
H      5.36012     1.83312     2.72001
C      1.30539     1.24446    -1.44572
C      0.37799     1.40442    -2.60578
O      1.44804     0.19434    -0.82738
O      1.94728     2.34549    -1.14593
H      2.60292     2.20641    -0.41064
H     -0.34634     2.18006    -2.37021
H      0.94455     1.72756    -3.47823
H     -0.13066     0.46988    -2.80331
C     -3.45552    -1.49337     0.48111
C     -4.06367    -0.99049     1.74947
O     -3.28785    -2.65268     0.20125
O     -3.08387    -0.48522    -0.34239
H     -2.64906    -0.87620    -1.13367
H     -4.51560    -1.81761     2.28698
H     -3.28634    -0.53045     2.35804
H     -4.80146    -0.22142     1.52973
C     -1.05048     1.71137     1.63953
C      0.10006     2.63061     1.92566
O     -1.62227     1.04526     2.46467
O     -1.36634     1.69998     0.33447
H     -2.07718     1.04607     0.20521
H      0.15365     2.82630     2.99001
H      1.02503     2.15147     1.61538
H      0.00394     3.55613     1.36709
