 56
-1604.8069072633814
C      4.65085     2.68457    -1.97549
C      4.53637     3.77742    -3.00040
O      5.46704     2.64820    -1.08837
O      3.72638     1.73098    -2.17151
H      3.80452     1.06095    -1.47159
H      5.30146     4.52332    -2.81861
H      4.64903     3.35881    -3.99873
H      3.54933     4.23261    -2.94427
C     -5.83346    -1.83371    -1.95428
C     -7.16412    -2.49227    -2.18157
O     -4.81022    -2.48328    -1.79780
O     -5.87567    -0.52045    -1.94141
H     -4.97109    -0.13328    -1.79422
H     -7.11004    -3.08656    -3.09061
H     -7.36696    -3.17314    -1.35869
H     -7.94774    -1.74779    -2.26274
C      0.87227     0.74645     2.42099
C      2.25281     0.48138     2.92879
O      0.59580     1.72886     1.75507
O      0.00180    -0.18125     2.75205
H     -4.76660     1.50393     2.07482
H      2.48010    -0.57556     2.86281
H      2.96148     1.06118     2.34828
H      2.31244     0.78178     3.97373
C      1.06311    -2.45980     0.78296
C     -0.24533    -3.16314     0.89739
O      2.07042    -2.81028     1.37404
O      1.03697    -1.39627    -0.00333
H      1.94014    -1.00653    -0.08399
H     -0.71187    -3.26280    -0.07642
H     -0.09797    -4.13353     1.35997
H     -0.89600    -2.55589     1.52305
C     -2.43702    -0.12270    -1.45708
C     -1.10859     0.53164    -1.29344
O     -3.47853     0.50797    -1.56600
O     -2.38580    -1.43851    -1.44798
H     -3.29004    -1.83144    -1.57965
H     -0.74728     0.34009    -0.28870
H     -0.37721     0.10600    -1.96858
H     -1.21202     1.59772    -1.44209
C     -2.69179     1.77021     1.70688
C     -4.11464     2.20539     1.56607
O     -2.37553     0.62123     1.98305
O     -1.82524     2.72577     1.46516
H     -0.89845     2.38569     1.57839
H     -0.91515     0.08612     2.46978
H     -4.24161     3.21282     1.95174
H     -4.35657     2.21194     0.50490
C      4.52686    -0.81398     0.36209
C      5.87867    -0.19761     0.21777
O      3.53214    -0.38708    -0.22217
O      4.48330    -1.83394     1.17835
H      3.56412    -2.21939     1.23153
H      5.87778     0.77832     0.69862
H      6.63544    -0.83648     0.66071
H      6.08121    -0.01636    -0.83392
