 32
-917.0180669892388
C      1.77504     0.25164     2.00710
C      0.78894    -0.86457     1.84739
O      1.63038     1.23204     2.69195
O      2.88420     0.06868     1.25204
H      3.44022     0.84100     1.40238
H      0.06530    -0.83335     2.65204
H      0.26454    -0.72828     0.90561
H      1.27558    -1.83255     1.80134
C     -1.62640     2.07534     1.10162
C     -1.43446     3.24220     2.01397
O     -2.25048     1.07528     1.41910
O     -1.03782     2.21846    -0.07228
H     -1.19064     1.42215    -0.63164
H     -1.47134     4.16498     1.44319
H     -2.19263     3.22820     2.78867
H     -0.44968     3.15608     2.46872
C      1.81993    -1.26308    -1.69078
C      3.25336    -1.54975    -2.02775
O      1.09473    -2.01987    -1.08972
O      1.43549    -0.05704    -2.12644
H      0.50088     0.07487    -1.89510
H      3.38779    -2.61908    -2.16535
H      3.54603    -1.00047    -2.91740
H      3.87951    -1.22912    -1.19656
C     -1.97260    -1.04382    -1.15122
C     -2.02214    -2.29519    -1.96284
O     -1.39248    -0.02900    -1.53470
O     -2.57832    -1.12339     0.00437
H     -2.49758    -0.27587     0.52454
H     -1.03478    -2.75206    -1.91323
H     -2.76717    -2.97294    -1.56215
H     -2.22751    -2.04542    -2.99964
