 36
-694.8467178615683
C      0.11933     2.55825    -0.19584
O      0.42910     1.17297    -0.10805
H      0.87392     3.15580     0.31764
H      1.16223     0.94633    -0.73007
H      0.06474     2.87799    -1.23699
H     -0.84805     2.71223     0.27358
C      2.21388     0.58126    -3.16813
O      2.23798     0.26937    -1.78421
H      1.21111     0.45372    -3.58325
H      1.95011    -0.66929    -1.68750
H      2.52156     1.61705    -3.29441
H      2.90445    -0.05770    -3.71895
C      1.59175    -2.63750    -0.07372
O      1.05127    -2.03649    -1.24786
H      1.34233    -2.05434     0.81276
H      0.12481    -1.78931    -1.04239
H      1.21307    -3.65322     0.04787
H      2.67540    -2.68473    -0.17526
C      1.17628     0.84374     3.16953
O      0.33246     0.08034     2.32845
H      1.34261     0.29362     4.09437
H      0.46729     0.41346     1.42427
H      2.14675     1.03059     2.70193
H      0.72188     1.80787     3.41688
C     -2.28709    -0.97472    -1.67854
O     -1.36675    -1.08804    -0.59942
H     -3.18404    -0.43318    -1.37939
H     -1.12993    -0.20178    -0.28373
H     -1.83334    -0.46453    -2.53182
H     -2.57055    -1.98034    -1.97928
C     -3.43373     0.19991     1.82133
O     -2.35957     1.12139     1.75457
H     -4.31458     0.69138     1.40993
H     -1.57392     0.72300     2.15248
H     -3.22710    -0.69848     1.23717
H     -3.65503    -0.09334     2.85096
