 60
-1158.0886926190833
C     -2.14607    -0.31852    -6.02962
O     -1.79122    -1.43165    -5.23719
H     -3.19736    -0.35219    -6.32941
H     -2.41944    -1.44848    -4.49542
H     -1.97424     0.62382    -5.49882
H     -1.53282    -0.32473    -6.93019
C      2.28388     2.49394     1.89157
O      1.77472     2.03576     3.13626
H      1.51716     3.00641     1.31190
H      0.94793     1.54737     2.98422
H      3.08275     3.20122     2.10552
H      2.68468     1.68340     1.28242
C      2.32081     1.87203    -1.81816
O      1.36966     1.24625    -0.97665
H      1.85555     2.26834    -2.72195
H      0.55433     1.79392    -0.95034
H      2.82418     2.68596    -1.29297
H      3.06936     1.13359    -2.10250
C     -1.20312    -0.15130     3.76890
O     -0.35770     0.24167     2.70527
H     -2.03427     0.55116     3.83538
H      0.30951    -0.47402     2.60739
H     -1.61294    -1.15030     3.59937
H     -0.66561    -0.15149     4.71997
C      3.52716    -0.09945     5.27754
O      3.51974     0.08431     3.87097
H      4.12050     0.67327     5.76792
H      3.03401     0.91242     3.68312
H      2.51416    -0.07796     5.68740
H      3.97209    -1.06907     5.49112
C     -2.56131    -0.81111     0.31896
O     -2.12051    -0.35710    -0.95531
H     -2.20881    -0.15256     1.10854
H     -1.20172    -0.70588    -1.08142
H     -3.64988    -0.82403     0.32664
H     -2.19524    -1.81900     0.51897
C     -3.80996    -2.69384    -2.66029
O     -3.46024    -1.38901    -3.08731
H     -3.29290    -3.44094    -3.26664
H     -3.03433    -0.93410    -2.33891
H     -3.53867    -2.84878    -1.61406
H     -4.88450    -2.84243    -2.77470
C      0.50924    -1.47930    -2.78176
O      0.33486    -1.15048    -1.40524
H      0.28091    -0.63962    -3.43729
H      0.84671    -0.32888    -1.24103
H      1.53659    -1.79925    -2.95977
H     -0.14994    -2.30340    -3.04318
C      2.11196    -1.79439     1.31572
O      1.68072    -1.45291     2.62622
H      1.32310    -2.36375     0.82830
H      2.43073    -1.02192     3.08883
H      2.31582    -0.90267     0.71920
H      3.01224    -2.40925     1.35004
C     -1.33253     2.91838     0.41990
O     -1.06444     2.38359    -0.87251
H     -0.98957     2.25156     1.21280
H     -1.66356     1.63759    -1.02040
H     -0.80865     3.87032     0.49694
H     -2.39981     3.10763     0.54950
