 48
-926.4805581793782
C     -0.12233    -1.06453     1.46351
O      0.04847    -2.34704     0.86483
H     -0.75942    -1.15156     2.34663
H     -0.77011    -2.53037     0.36160
H      0.84128    -0.66616     1.78107
H     -0.57973    -0.35308     0.77542
C     -0.53758     2.55089     2.72611
O     -0.08062     2.75917     1.40441
H      0.05696     3.12113     3.44251
H      0.83185     2.39727     1.34368
H     -1.57325     2.88233     2.79673
H     -0.48754     1.49404     2.99784
C     -3.20885    -3.43687    -0.77360
O     -2.16838    -2.48654    -0.65755
H     -3.79367    -3.49700     0.14814
H     -2.58701    -1.59912    -0.62209
H     -3.88249    -3.17934    -1.59358
H     -2.77108    -4.41220    -0.97787
C      3.87839     0.49041    -1.80832
O      2.67260     0.40379    -1.07175
H      4.68456    -0.05628    -1.31396
H      2.42873    -0.55383    -1.03229
H      3.74739     0.07961    -2.81040
H      4.16478     1.53737    -1.90155
C     -3.94285     0.10106     0.82566
O     -3.22845    -0.08507    -0.38344
H     -3.26685     0.12487     1.68536
H     -2.66312     0.71358    -0.50977
H     -4.50851     1.03245     0.80297
H     -4.64390    -0.72271     0.95869
C      3.53733     2.23706     1.63370
O      2.31550     1.67100     1.20079
H      3.40043     2.63162     2.63901
H      2.48418     1.20927     0.34851
H      4.32511     1.48283     1.66518
H      3.85652     3.04889     0.97562
C     -0.83530     2.05453    -1.76942
O     -1.64637     1.98734    -0.60223
H     -0.63011     3.09375    -2.02771
H     -1.11027     2.31910     0.15070
H      0.11002     1.52784    -1.63449
H     -1.38180     1.59430    -2.59127
C      1.30772    -2.56634    -2.13983
O      1.99087    -2.14186    -0.96358
H      1.58719    -1.91302    -2.96723
H      1.37596    -2.31270    -0.21544
H      1.59476    -3.58698    -2.39308
H      0.22807    -2.51791    -1.99794
