 48
-926.479380327564
C     -1.08030    -2.10832     1.85748
O     -0.67915    -0.95068     2.59424
H     -0.49462    -2.21399     0.94442
H      0.29609    -0.88723     2.48109
H     -0.95713    -3.00330     2.46786
H     -2.13238    -2.01258     1.59077
C     -2.88002     1.66373     2.39021
O     -1.96771     1.03683     1.50866
H     -3.47256     2.37665     1.82085
H     -1.48205     0.32053     2.00202
H     -3.54520     0.92829     2.84284
H     -2.34233     2.19203     3.17866
C     -2.69359     1.21004    -1.92755
O     -2.39689     0.14254    -1.03715
H     -1.94096     1.99426    -1.86420
H     -2.33135     0.50736    -0.13859
H     -2.69873     0.81910    -2.94418
H     -3.67928     1.63092    -1.71716
C      2.63191    -2.42025    -1.15197
O      1.87069    -1.35016    -0.62891
H      2.04955    -3.34269    -1.19513
H      0.99245    -1.35122    -1.08291
H      2.99239    -2.18439    -2.15464
H      3.49927    -2.59288    -0.51469
C     -0.29605    -1.24681    -3.24232
O     -0.44494    -1.45510    -1.84493
H      0.53156    -1.85848    -3.60345
H     -1.18140    -0.88193    -1.53973
H     -1.19572    -1.56452    -3.77242
H     -0.08824    -0.20317    -3.46627
C      2.60455    -2.08800     2.44004
O      1.91725    -0.94606     1.96508
H      3.68177    -1.90924     2.45362
H      1.93543    -0.99941     0.98301
H      2.27725    -2.30442     3.45662
H      2.40437    -2.96088     1.81640
C      1.01895     2.55996     1.12050
O     -0.11624     2.57254     0.26744
H      1.30829     1.54186     1.38760
H     -0.82458     2.09463     0.72945
H      1.85251     3.02515     0.59494
H      0.83364     3.13354     2.03156
C      2.04170     1.63256    -2.16526
O      0.63364     1.71374    -2.20110
H      2.49966     2.62511    -2.20769
H      0.31975     1.98878    -1.32271
H      2.40638     1.11994    -1.27354
H      2.38663     1.07559    -3.03805
