 36
-694.8431856291002
C     -0.91511     2.54918    -1.54309
O      0.16483     1.82984    -0.96777
H     -1.83722     1.97222    -1.49949
H     -0.03741     1.64857    -0.02727
H     -1.06292     3.50567    -1.03683
H     -0.67157     2.75360    -2.58515
C      0.32297    -2.64911     1.02265
O     -0.33683    -1.57348     0.36992
H      1.40198    -2.51918     0.97843
H      0.11203    -1.38427    -0.48737
H      0.01070    -2.64771     2.06589
H      0.04017    -3.60374     0.57811
C      3.14529    -0.18019     0.37630
O      3.09536    -0.95473     1.57822
H      4.07003     0.39801     0.31587
H      3.88582    -1.49275     1.63048
H      3.04775    -0.80820    -0.50871
H      2.31089     0.51284     0.39382
C     -0.32125    -0.84254    -2.96586
O      0.61516    -0.62501    -1.91440
H     -0.57617    -1.90159    -2.99593
H      0.55577     0.32854    -1.68275
H     -1.23309    -0.26818    -2.80901
H      0.11759    -0.56668    -3.92635
C      0.57151     1.12421     2.64915
O     -0.28056     0.90777     1.53266
H      1.34691     0.36067     2.71244
H     -0.31309    -0.04469     1.32901
H      1.04746     2.09905     2.53949
H     -0.01334     1.12928     3.56960
C     -3.38220     0.51349     0.36333
O     -2.73574    -0.24772    -0.64477
H     -2.69443     1.20408     0.85322
H     -2.03122    -0.77003    -0.24124
H     -4.17344     1.09213    -0.11415
H     -3.83615    -0.12459     1.12667
