 36
-694.8496427383552
C     -1.69185     0.33168    -1.61728
O     -0.38675     0.69011    -2.06248
H     -2.17785    -0.22886    -2.41388
H     -0.01609     1.30926    -1.40809
H     -1.65511    -0.28313    -0.71651
H     -2.28461     1.22184    -1.40928
C      2.20742     1.53104    -0.05301
O      0.81775     1.75381     0.14260
H      2.57233     2.28464    -0.74589
H      0.47561     1.00426     0.68179
H      2.74907     1.62284     0.88935
H      2.39632     0.54154    -0.47546
C     -0.11273    -0.28123     2.92046
O     -0.22331    -0.29590     1.50621
H     -0.28188     0.73208     3.28005
H     -0.01780    -1.19554     1.16409
H     -0.85684    -0.93792     3.37506
H      0.88036    -0.60558     3.23740
C      1.13480    -2.18466    -3.25043
O      1.13673    -1.51277    -2.00451
H      1.52024    -1.53884    -4.04058
H      0.61768    -0.68348    -2.10309
H      1.77591    -3.06086    -3.17325
H      0.12634    -2.50681    -3.52497
C     -1.87939     2.99185     1.99617
O     -0.52534     3.31478     2.23409
H     -2.25410     3.46888     1.08553
H     -0.02137     3.03759     1.46266
H     -2.03324     1.91306     1.90663
H     -2.46597     3.35694     2.83771
C     -0.65610    -3.53771    -0.03881
O      0.33246    -2.57856     0.29038
H     -1.48156    -3.08225    -0.59244
H      0.71265    -2.25546    -0.55625
H     -0.23328    -4.33897    -0.64640
H     -1.04227    -3.97007     0.88148
