 36
-694.8560714404016
C     -1.93782     1.54175    -0.64582
O     -1.92911     0.21606    -1.16504
H     -2.37334     2.23155    -1.36942
H     -1.12016     0.14809    -1.71408
H     -2.54526     1.56159     0.25957
H     -0.92687     1.87135    -0.40014
C      3.25953     1.74228    -0.67315
O      1.96531     1.26633    -0.35273
H      3.82408     1.00091    -1.24598
H      2.06646     0.52170     0.28608
H      3.16004     2.64675    -1.27228
H      3.82189     1.98497     0.22944
C      1.58080    -1.95503     0.31843
O      1.99813    -0.90326     1.19162
H      2.04945    -2.89602     0.60608
H      1.33256    -0.87391     1.91138
H      0.49598    -2.06303     0.34374
H      1.88543    -1.70920    -0.69901
C     -3.35750    -2.02390     0.98725
O     -2.11300    -1.34648     0.98078
H     -3.30195    -2.85560     1.68673
H     -2.05765    -0.82743     0.14822
H     -4.16058    -1.35139     1.29828
H     -3.59512    -2.41544    -0.00368
C      0.62379     1.13347    -3.52082
O      0.45345     0.32364    -2.37459
H      1.63923     1.04688    -3.91298
H      1.03768     0.68643    -1.67642
H     -0.07048     0.79912    -4.28973
H      0.42708     2.18590    -3.29958
C     -0.29586     0.76565     2.85014
O     -0.17649    -0.64827     2.75963
H      0.21593     1.25373     2.01696
H     -0.90805    -0.96570     2.19735
H     -1.34305     1.07392     2.83952
H      0.15931     1.09572     3.78159
