 30
-579.0349326456029
C      3.20770     1.52653    -1.88855
O      2.81197     0.29504    -1.32251
H      3.76344     2.14306    -1.17576
H      2.22412     0.49252    -0.58648
H      3.85809     1.31644    -2.73628
H      2.34963     2.10446    -2.24535
C     -2.93289    -2.42221     0.69855
O     -1.78903    -1.83592     0.10080
H     -3.53312    -2.88081    -0.08384
H     -1.14572    -1.64281     0.81319
H     -2.64718    -3.19470     1.41563
H     -3.53614    -1.67090     1.21388
C     -0.68311    -0.34150     3.09960
O     -0.05931    -0.87421     1.94613
H     -1.44118     0.40220     2.83867
H      0.34317    -0.12604     1.46658
H     -1.16214    -1.15420     3.64216
H      0.04940     0.12342     3.76110
C      0.35307     2.54090     0.78757
O      0.60411     1.21038     0.37329
H     -0.71418     2.69887     0.95101
H     -0.02814     0.99249    -0.35777
H      0.88478     2.71813     1.71970
H      0.70760     3.24927     0.03872
C     -0.41598    -0.14102    -2.60576
O     -1.08227     0.29036    -1.42078
H      0.44821    -0.76403    -2.37352
H     -1.47369    -0.49804    -0.99121
H     -1.09840    -0.69813    -3.24752
H     -0.07904     0.74254    -3.14572
