 36
-694.8513825972145
C      0.30294    -1.37660    -2.49413
O      0.08797    -0.82865    -1.20516
H     -0.48497    -1.06676    -3.18187
H     -0.04859     0.14993    -1.30575
H      1.26605    -1.05535    -2.89542
H      0.29162    -2.46250    -2.42263
C      2.96032     1.47703     0.34791
O      2.28289     1.01534     1.51339
H      2.25668     1.64898    -0.46960
H      2.19233     0.04798     1.44069
H      3.45604     2.41475     0.58802
H      3.70910     0.75550     0.01742
C      2.39099    -2.70766     0.50575
O      1.64196    -1.56517     0.86832
H      1.73761    -3.54169     0.23773
H      1.04963    -1.34141     0.12602
H      3.04993    -2.49965    -0.34187
H      2.99954    -3.00754     1.35615
C     -1.78411     2.02804    -1.83316
O     -0.49174     1.70345    -1.33072
H     -1.87472     1.61968    -2.83926
H     -0.46973     1.94082    -0.37318
H     -2.56453     1.59625    -1.20754
H     -1.91426     3.10971    -1.88619
C     -3.21918    -1.79142     0.59524
O     -2.78185    -0.83661    -0.35553
H     -3.15498    -2.81283     0.20920
H     -1.84733    -0.98255    -0.54407
H     -2.63900    -1.73611     1.52233
H     -4.25968    -1.57496     0.83281
C     -1.01197     0.93886     2.01549
O     -0.23228     1.89522     1.30210
H     -1.16355     1.26899     3.04361
H      0.70965     1.67773     1.47576
H     -1.98428     0.83366     1.53960
H     -0.51449    -0.03134     2.02906
