 36
-694.8466381890859
C     -3.06399     1.84185    -2.45974
O     -2.13769     1.96768    -1.39167
H     -2.65823     2.35806    -3.32721
H     -2.52789     1.50663    -0.62263
H     -3.22886     0.79236    -2.71356
H     -4.02137     2.29455    -2.19875
C      4.31432    -1.94726     0.14503
O      3.23497    -1.07706    -0.14909
H      4.58445    -2.48291    -0.76525
H      2.74410    -0.90397     0.66762
H      5.19203    -1.39340     0.49145
H      4.04776    -2.68383     0.90843
C      1.42443     0.53215     2.76487
O      1.58717    -0.72185     2.13221
H      2.26718     0.69368     3.43383
H      0.78547    -0.87808     1.60274
H      1.38970     1.34783     2.03703
H      0.50518     0.55230     3.35596
C      1.32106     1.15192    -1.97724
O      0.09391     0.48181    -1.70659
H      2.12739     0.42922    -1.89355
H     -0.63749     1.13644    -1.70358
H      1.31807     1.56439    -2.98707
H      1.49201     1.95782    -1.26048
C     -2.92287     1.09610     1.92730
O     -2.89334     0.41089     0.68153
H     -3.59658     1.94585     1.83038
H     -2.18504    -0.24993     0.70800
H     -3.29288     0.44553     2.72099
H     -1.92986     1.46281     2.19613
C     -0.28647    -2.42633    -0.13459
O     -0.40279    -1.07551     0.30069
H     -0.55281    -3.08106     0.69272
H     -0.14792    -0.49684    -0.47000
H     -0.95794    -2.62288    -0.97088
H      0.73713    -2.64031    -0.44316
