 36
-694.857390189032
C     -0.41313     2.45786    -1.74900
O      0.21374     2.56727    -0.47653
H     -1.12595     1.63212    -1.76405
H     -0.48342     2.34112     0.18054
H     -0.93688     3.38199    -1.99215
H      0.35176     2.28323    -2.50557
C      3.27850     1.41272     0.50416
O      2.15979     0.80223    -0.11517
H      3.97445     0.63632     0.82312
H      1.48139     1.50222    -0.26865
H      3.79362     2.07459    -0.19376
H      2.97795     1.99048     1.38094
C      2.65553    -2.45247     0.63091
O      1.50064    -1.64418     0.73434
H      2.38609    -3.48094     0.86760
H      1.75544    -0.73521     0.46977
H      3.07708    -2.42374    -0.37693
H      3.42351    -2.12984     1.33662
C     -0.04173    -1.80284    -2.06997
O     -0.58028    -2.23203    -0.82459
H      0.66743    -0.98573    -1.92779
H      0.14770    -2.13896    -0.17421
H      0.45713    -2.63079    -2.57519
H     -0.85908    -1.45483    -2.70284
C     -3.64751    -1.18549     0.37461
O     -2.59577    -0.54614    -0.33252
H     -4.34880    -1.65491    -0.31710
H     -1.90721    -1.22509    -0.51261
H     -3.25740    -1.94472     1.05531
H     -4.18531    -0.43953     0.95949
C     -1.02844     0.88301     2.18732
O     -1.67237     1.52425     1.09528
H     -0.56174    -0.05436     1.88148
H     -2.07951     0.81548     0.55295
H     -0.26038     1.54861     2.58279
H     -1.74251     0.67869     2.98615
