 36
-694.8455709894139
C     -2.33526     2.36281    -2.09261
O     -2.46110     0.95888    -1.95901
H     -2.25118     2.60250    -3.14955
H     -2.79580     0.77676    -1.05832
H     -3.20616     2.87827    -1.68856
H     -1.44547     2.73267    -1.57765
C      4.25787    -1.80049     0.24996
O      3.24002    -0.89638    -0.13924
H      4.84497    -2.05436    -0.63165
H      2.73479    -0.66158     0.65312
H      4.92618    -1.36297     0.99736
H      3.83993    -2.72432     0.66282
C      1.51528     1.03483     2.49144
O      1.68878    -0.32139     2.13333
H      2.35400     1.33702     3.11498
H      0.86026    -0.60853     1.70701
H      1.48040     1.67910     1.60793
H      0.59111     1.17357     3.05928
C      0.93228     0.55359    -2.24110
O     -0.11778    -0.31475    -1.83135
H      1.87552     0.02547    -2.14276
H     -0.97217     0.12139    -2.04027
H      0.79915     0.85499    -3.28032
H      0.96549     1.44895    -1.61454
C     -2.88128     1.52727     1.51239
O     -2.91900     0.40644     0.64007
H     -3.26055     1.26381     2.50006
H     -2.17564    -0.17478     0.85868
H     -1.86506     1.91594     1.60851
H     -3.51608     2.30946     1.09754
C     -0.43855    -2.50950     0.60433
O     -0.41274    -1.08699     0.61972
H     -0.61491    -2.86662     1.61747
H     -0.22261    -0.79322    -0.31553
H     -1.23894    -2.86707    -0.04317
H      0.51151    -2.90910     0.24930
