 42
-810.6631832846351
C     -2.75054     0.31151     3.16938
O     -2.74690     0.23637     1.75418
H     -3.24747     1.23199     3.46977
H     -2.38569    -0.64433     1.51758
H     -3.28774    -0.53276     3.60259
H     -1.73045     0.31396     3.56464
C      2.24564    -2.16261     0.09358
O      1.06188    -1.45961     0.46243
H      1.94066    -3.07589    -0.41385
H      1.30143    -0.54609     0.71195
H      2.85221    -1.56396    -0.58477
H      2.82862    -2.42754     0.97623
C     -2.08805    -2.69933    -0.04181
O     -1.52799    -2.06757     1.10137
H     -2.12936    -2.01430    -0.88974
H     -0.58332    -1.91604     0.93002
H     -1.50078    -3.57377    -0.32653
H     -3.09724    -3.02225     0.20573
C      2.45624     1.84671    -2.37515
O      2.92986     0.89855    -1.43561
H      1.41319     1.65513    -2.64185
H      2.45503     1.05611    -0.61018
H      2.53587     2.86965    -1.99600
H      3.06529     1.76720    -3.27469
C      0.67608    -1.05330    -3.30225
O     -0.24030    -0.71686    -2.27594
H      1.68980    -0.73989    -3.05009
H      0.14719    -0.94877    -1.42467
H      0.67536    -2.12932    -3.50116
H      0.36814    -0.54300    -4.21502
C      1.71142     1.69008     2.15962
O      1.36425     1.22759     0.86468
H      0.89785     1.49415     2.85920
H      0.43949     1.55088     0.67573
H      2.60690     1.16622     2.49179
H      1.90946     2.76119     2.13545
C     -1.60120     2.20258    -0.76577
O     -1.09804     1.95325     0.54386
H     -1.71846     1.27343    -1.32354
H     -1.76650     1.40255     1.01569
H     -2.55921     2.71977    -0.71601
H     -0.89223     2.84038    -1.29348
