 60
-1158.0964669334983
C      5.62791     2.05271    -1.21171
O      4.26433     1.69010    -1.09153
H      5.96733     2.44804    -0.25399
H      4.07670     0.99441    -1.73766
H      6.25622     1.19519    -1.46841
H      5.77048     2.82461    -1.97324
C      1.10561     2.93937    -0.90509
O      0.37468     1.71799    -0.88769
H      1.26063     3.28125    -1.92966
H     -0.57918     1.95356    -0.85084
H      0.56648     3.71118    -0.35578
H      2.07165     2.78282    -0.43436
C      4.13573    -1.77227    -2.83931
O      3.62155    -0.45232    -2.78443
H      3.79647    -2.36181    -1.98703
H      2.65452    -0.50984    -2.75130
H      3.83393    -2.27218    -3.76228
H      5.22273    -1.71162    -2.81629
C     -0.38455    -0.99064    -2.41480
O      0.91347    -0.48904    -2.12313
H     -1.04597    -0.16935    -2.68604
H      0.77622     0.38837    -1.67356
H     -0.31819    -1.69088    -3.24445
H     -0.80608    -1.50008    -1.54495
C      2.77462    -0.94292     0.50582
O      1.93520    -1.96085    -0.03639
H      2.30689     0.03964     0.43788
H      1.58348    -1.60919    -0.87255
H      2.95325    -1.17773     1.55350
H      3.72840    -0.91116    -0.01298
C     -4.91489    -1.05483     3.59810
O     -3.85797    -1.88734     3.16620
H     -5.05600    -0.20483     2.92645
H     -3.05693    -1.35240     3.13697
H     -5.83007    -1.64701     3.60408
H     -4.74635    -0.67400     4.60998
C     -4.02937    -0.40601     0.05651
O     -3.56345     0.71341     0.79730
H     -4.58582    -1.08811     0.69325
H     -2.93810     0.37359     1.46652
H     -4.68141    -0.04568    -0.73712
H     -3.19994    -0.94871    -0.40080
C     -0.68033     0.84009     2.58919
O     -1.61700    -0.22315     2.43721
H     -0.03150     0.64759     3.44258
H     -1.09679    -0.97801     2.06259
H     -0.06996     0.94206     1.69118
H     -1.22404     1.76733     2.76591
C     -0.71929    -3.53032     1.62477
O     -0.26923    -2.19202     1.46440
H     -0.10321    -4.06083     2.35203
H      0.58168    -2.19315     0.97210
H     -1.74816    -3.50621     1.98155
H     -0.68892    -4.06833     0.67568
C     -2.55236     3.70670    -0.58087
O     -2.18101     2.35493    -0.78689
H     -3.54210     3.90076    -0.99457
H     -2.76697     1.79466    -0.22936
H     -2.55994     3.95646     0.48289
H     -1.83530     4.35127    -1.08706
