 24
-463.2307325954056
C      2.36027     0.67541    -1.43053
O      1.80507     0.57137    -0.12921
H      1.61147     0.47052    -2.20090
H      1.49813    -0.35377    -0.01301
H      2.73325     1.68897    -1.56284
H      3.18989    -0.02151    -1.55647
C     -0.67547     2.36211     1.43156
O     -0.57248     1.80341     0.13182
H     -0.46946     1.61602     2.20420
H      0.35249     1.49550     0.01631
H      0.02067     3.19289     1.55453
H     -1.68916     2.73419     1.56442
C     -2.35950    -0.67424    -1.43486
O     -1.80405    -0.57584    -0.13328
H     -3.18930     0.02313    -1.55817
H     -1.49604     0.34862    -0.01466
H     -1.61062    -0.46690    -2.20451
H     -2.73264    -1.68701    -1.57142
C      0.67474    -2.36461     1.43371
O      0.57401    -1.80924     0.13225
H      1.68823    -2.73622     1.56918
H     -0.35085    -1.50235     0.01411
H      0.46704    -1.61652     2.20395
H     -0.02098    -3.19554     1.55816
