 36
-694.8515454333627
C      1.49722     2.93099    -1.30708
O      0.21596     2.81154    -1.88430
H      1.67443     2.18262    -0.53193
H      0.06459     1.88948    -2.11741
H      2.28452     2.85058    -2.06281
H      1.57100     3.91936    -0.85454
C      2.14931    -0.93792     2.85375
O      1.06512    -1.35149     2.04130
H      2.17056     0.14952     2.95893
H      1.24609    -1.03227     1.13434
H      2.03873    -1.38708     3.83864
H      3.10098    -1.26427     2.42748
C      2.67005    -0.64603    -1.14717
O      1.48790    -0.40896    -0.40654
H      3.50202    -0.75945    -0.45329
H      0.75151    -0.24298    -1.03182
H      2.58845    -1.55509    -1.74691
H      2.88926     0.19122    -1.81117
C     -1.01004    -1.25073    -2.62695
O     -0.62143    -0.02076    -2.03276
H     -2.08225    -1.26035    -2.81483
H     -1.29712     0.19309    -1.33715
H     -0.48313    -1.35477    -3.57107
H     -0.75828    -2.09210    -1.97757
C     -2.17746    -2.38056     1.99437
O     -1.61118    -1.08459     2.10945
H     -1.83321    -3.02733     2.80180
H     -0.64422    -1.18831     2.22055
H     -3.25992    -2.29191     2.05703
H     -1.91249    -2.84095     1.03892
C     -1.79180     1.82689     0.50199
O     -2.10343     0.51391     0.03803
H     -0.72474     1.94163     0.69803
H     -1.97006    -0.09630     0.79909
H     -2.08180     2.54557    -0.26055
H     -2.34253     2.04507     1.41655
