 36
-694.8541383169736
C     -2.65907     0.79055     1.19796
O     -3.15348     0.11014     0.05967
H     -2.80304     0.20037     2.10711
H     -2.49869    -0.53912    -0.21780
H     -1.60095     1.04738     1.10615
H     -3.22643     1.71410     1.30767
C      2.32021    -1.52389    -0.89400
O      1.23379    -1.93218    -0.06970
H      2.36798    -2.18112    -1.76138
H      1.36019    -1.49194     0.80216
H      2.18843    -0.49416    -1.23006
H      3.26198    -1.59718    -0.35059
C      0.57719    -0.60516     3.10728
O      1.60101    -0.47614     2.13432
H      0.80149    -1.45785     3.74339
H      1.51363     0.42011     1.74159
H      0.51660     0.28969     3.72773
H     -0.39431    -0.76402     2.63429
C     -1.10247     2.09785    -1.83150
O     -0.15683     1.11609    -1.41924
H     -0.73021     3.07862    -1.53389
H     -0.55906     0.23060    -1.48564
H     -1.21327     2.09349    -2.91775
H     -2.07157     1.92957    -1.36498
C     -1.44073    -2.49069    -2.14661
O     -1.07861    -1.48370    -1.21540
H     -2.45372    -2.29091    -2.48675
H     -0.25049    -1.77108    -0.76002
H     -0.76756    -2.48678    -3.00683
H     -1.41014    -3.47477    -1.67782
C      2.32208     2.53142     0.44077
O      1.17229     1.78810     0.80096
H      2.86798     2.79507     1.34548
H      0.68778     1.55609    -0.02062
H      2.97833     1.94499    -0.20757
H      2.04939     3.45201    -0.07879
