 42
-810.6625589140281
C      0.93215     0.17796    -3.02357
O     -0.36856    -0.33595    -2.74892
H      0.82978     1.05061    -3.66667
H     -0.24321    -1.27834    -2.48327
H      1.43467     0.47346    -2.09880
H      1.54595    -0.56375    -3.53281
C      1.81085    -1.45344     1.00109
O      0.70512    -2.32092     0.80682
H      1.66689    -0.49790     0.49359
H     -0.09657    -1.84988     1.10093
H      1.97608    -1.26166     2.06015
H      2.69915    -1.93547     0.59529
C     -1.18011    -3.45316    -1.56906
O      0.05927    -2.77293    -1.75112
H     -1.81579    -3.25977    -2.43326
H      0.44930    -2.67848    -0.85317
H     -1.01929    -4.52864    -1.48727
H     -1.68429    -3.09691    -0.66858
C     -2.49370     1.95817    -1.30552
O     -1.39266     1.18527    -0.86064
H     -2.83930     2.57326    -0.47728
H     -1.10058     0.61046    -1.61138
H     -2.20103     2.60606    -2.13469
H     -3.30948     1.31293    -1.63159
C     -1.79147    -0.56100     2.69171
O     -1.52316    -0.87540     1.32708
H     -1.87391    -1.50163     3.23500
H     -1.57205    -0.07690     0.78600
H     -0.98292     0.03155     3.11744
H     -2.73539    -0.02076     2.79420
C      2.41726     1.55402     3.19837
O      1.11658     1.28496     2.72081
H      2.67008     2.61566     3.12191
H      1.05145     1.63411     1.81863
H      2.46630     1.26431     4.24752
H      3.17526     0.98648     2.64939
C      0.94422     3.58216    -0.28697
O      0.86579     2.23717     0.13826
H      0.12240     4.17703     0.11909
H      0.02803     1.87889    -0.21160
H      1.88547     4.00100     0.06426
H      0.92136     3.65154    -1.37747
