 36
-694.8505550764771
C      0.56491     2.54543    -1.28670
O      0.72469     1.53641    -0.30280
H      1.48572     2.61639    -1.86249
H     -0.13687     1.42148     0.16507
H     -0.25443     2.29966    -1.96439
H      0.36109     3.51085    -0.82117
C      4.22498     1.20180    -0.03531
O      3.35818     1.51515     1.03478
H      5.23462     1.12408     0.36350
H      2.47869     1.65666     0.67058
H      3.96294     0.25037    -0.50288
H      4.21806     1.98025    -0.80404
C      1.78259    -1.56079     0.78640
O      1.54448    -1.12685    -0.55129
H      0.88881    -1.45901     1.40571
H      1.40045    -0.16507    -0.53198
H      2.05656    -2.61293     0.74431
H      2.59620    -0.99766     1.23866
C     -1.29522    -1.20702    -2.20439
O     -0.86364    -2.11964    -1.20678
H     -0.72719    -1.34231    -3.12451
H      0.08120    -1.91373    -1.03531
H     -2.34696    -1.39803    -2.41646
H     -1.18461    -0.17171    -1.87550
C     -3.35476    -2.07757     1.28977
O     -2.08658    -1.47805     1.09381
H     -4.05743    -1.78678     0.50345
H     -1.68883    -1.85445     0.27813
H     -3.27518    -3.16548     1.30149
H     -3.74571    -1.74807     2.25011
C     -2.82434     1.71625     0.44014
O     -1.60460     1.11143     0.82963
H     -3.60003     1.54213     1.18601
H     -1.78970     0.16328     1.01756
H     -2.67285     2.78989     0.34947
H     -3.17083     1.32333    -0.51952
