 60
-1158.0985457311515
C      0.75040    -3.99623    -1.82807
O      0.82475    -2.72093    -1.22483
H     -0.21570    -4.43880    -1.58110
H      1.52246    -2.21562    -1.67520
H      0.82387    -3.93797    -2.91695
H      1.53490    -4.66377    -1.45849
C      0.92773     3.90142    -0.82627
O      0.69775     2.54010    -0.52130
H      0.42169     4.18234    -1.75113
H     -0.27849     2.43205    -0.34870
H      0.57286     4.54760    -0.02347
H      1.99711     4.05725    -0.95808
C      3.74016    -0.69154    -1.53330
O      2.70855    -1.12027    -2.40333
H      4.33293     0.10239    -1.99340
H      2.20845    -0.32174    -2.66330
H      3.34129    -0.33028    -0.58247
H      4.39476    -1.53966    -1.33978
C     -0.16634     0.52005    -3.09072
O      1.14120     1.03815    -2.85294
H     -0.12891    -0.05670    -4.01218
H      1.08735     1.59598    -2.06329
H     -0.50580    -0.12569    -2.28095
H     -0.88860     1.32724    -3.22192
C      2.73821     2.44784     2.09223
O      2.24858     1.36800     1.31927
H      3.27315     3.16769     1.46988
H      1.68463     1.75243     0.62299
H      1.92636     2.96992     2.60381
H      3.43011     2.06163     2.83913
C     -1.89958    -3.13727     0.69642
O     -2.56677    -1.95784     1.12939
H     -2.37817    -3.47816    -0.22202
H     -2.11784    -1.65057     1.95094
H     -0.84187    -2.96149     0.49714
H     -1.99998    -3.92430     1.44523
C     -3.90154    -0.39522    -1.50574
O     -2.76515    -0.11250    -0.71039
H     -3.87116    -1.42290    -1.86690
H     -2.71251    -0.82045    -0.01755
H     -4.82312    -0.25365    -0.93834
H     -3.90841     0.26996    -2.36891
C     -1.74336     0.39531     3.40852
O     -1.25297    -0.91982     3.19961
H     -1.19250     0.89668     4.20528
H     -0.27904    -0.84988     3.08542
H     -1.67173     0.99781     2.50040
H     -2.78903     0.33123     3.70567
C      1.98041    -1.85809     2.32601
O      1.35656    -0.67072     2.79069
H      1.58575    -2.69980     2.89487
H      1.68193     0.06771     2.23591
H      1.77994    -2.01997     1.26502
H      3.05938    -1.81633     2.48592
C     -2.83999     3.18718    -0.34594
O     -1.82522     2.23283    -0.09145
H     -2.53988     4.14911     0.06789
H     -2.20019     1.34655    -0.32120
H     -3.01202     3.30425    -1.41923
H     -3.77805     2.89072     0.12353
