 42
-810.6649060550698
C      1.69118     2.61430     1.09702
O      0.77649     1.71315     0.49145
H      1.24877     3.60828     1.08323
H      1.01966     0.80398     0.74379
H      1.89572     2.33429     2.12778
H      2.63181     2.64566     0.54155
C     -0.89961    -3.66664     1.27324
O     -0.39370    -2.69789     0.36822
H     -0.98839    -3.25189     2.28061
H     -1.16003    -2.17662     0.03106
H     -1.88170    -4.01626     0.95433
H     -0.21774    -4.51299     1.29667
C      0.76118     0.20877     3.73071
O      2.06976    -0.00656     3.25499
H      0.81311     0.92001     4.55340
H      1.98861    -0.50904     2.43527
H      0.10521     0.62370     2.95878
H      0.31104    -0.71591     4.10189
C      0.03569     3.32706    -2.38654
O      0.25619     1.95887    -2.10596
H      0.95661     3.90113    -2.26506
H      0.47582     1.89933    -1.15187
H     -0.29871     3.42492    -3.41794
H     -0.72710     3.74973    -1.72795
C     -1.14953    -0.80941    -3.51064
O     -1.70045     0.18222    -2.65813
H     -0.22077    -1.21239    -3.09756
H     -1.01071     0.86317    -2.51706
H     -1.86811    -1.62191    -3.60833
H     -0.94863    -0.40280    -4.50212
C      2.27411    -1.02580    -0.47268
O      1.50466    -0.95997     0.72574
H      1.83133    -0.38827    -1.24068
H      0.78863    -1.64180     0.65948
H      3.28239    -0.67985    -0.25249
H      2.31533    -2.04829    -0.84398
C     -2.54287    -0.08690     0.60691
O     -2.36040    -1.08533    -0.38993
H     -2.78127    -0.57646     1.54999
H     -2.21699    -0.61886    -1.24240
H     -1.64088     0.51495     0.74113
H     -3.37070     0.57102     0.34328
