 54
-1042.288840635814
C      4.56237     1.01550     2.34563
O      3.41315     0.62751     1.62192
H      4.92966     1.99799     2.03423
H      3.57160     0.82224     0.68242
H      4.30603     1.06919     3.40315
H      5.37711     0.29341     2.22860
C      0.66239    -0.09398    -2.82761
O      1.86619    -0.34398    -2.11510
H     -0.07099    -0.87392    -2.63113
H      1.61075    -0.86258    -1.32470
H      0.23590     0.86485    -2.53217
H      0.87794    -0.07593    -3.89479
C     -3.14251     0.09244    -1.79785
O     -3.53360    -0.98132    -0.95091
H     -3.99441     0.73224    -2.02673
H     -3.83993    -0.58611    -0.10371
H     -2.35240     0.69804    -1.34909
H     -2.77259    -0.32223    -2.73611
C      5.08064     0.42132    -1.43864
O      3.88279     1.07485    -1.05625
H      5.16309     0.36699    -2.52519
H      3.15601     0.64937    -1.55550
H      5.92549     0.99008    -1.05319
H      5.12238    -0.59411    -1.03407
C     -1.94871    -3.72285     0.19894
O     -1.47882    -2.59153    -0.51405
H     -1.10865    -4.37986     0.42294
H     -2.26762    -2.03391    -0.71800
H     -2.42229    -3.42629     1.13682
H     -2.67518    -4.27829    -0.39407
C     -3.58462    -0.70821     2.42734
O     -3.99802     0.19675     1.41730
H     -3.69246    -0.26397     3.41702
H     -3.39504     0.97430     1.46042
H     -4.21907    -1.59318     2.37409
H     -2.54308    -1.01703     2.29838
C     -2.60718     3.32008     0.62608
O     -2.21501     2.17577     1.36112
H     -3.67831     3.47430     0.75011
H     -1.37782     1.85629     0.96283
H     -2.08834     4.20763     0.99398
H     -2.39382     3.20570    -0.44005
C      1.41098    -2.12684     1.13365
O      0.80495    -1.45883     0.03560
H      1.57943    -3.17872     0.89614
H     -0.05236    -1.90677    -0.15901
H      2.35939    -1.64589     1.34670
H      0.77671    -2.06051     2.02002
C      0.92805     2.37866    -0.13886
O     -0.03136     1.35464     0.12443
H      1.38709     2.23632    -1.11543
H      0.41582     0.50216     0.23142
H      0.40181     3.33317    -0.13495
H      1.70177     2.40550     0.62469
