 36
-694.8441381342069
C     -1.17273     2.46803    -3.14724
O     -0.47792     1.97760    -2.01766
H     -0.55628     3.21966    -3.63491
H     -1.12610     1.53000    -1.43538
H     -1.37919     1.66465    -3.85972
H     -2.12051     2.92792    -2.85930
C      1.17129    -0.82075    -1.60838
O      1.65463     0.47833    -1.26463
H      0.54293    -0.76399    -2.49815
H      1.03340     1.12519    -1.64413
H      2.02097    -1.46937    -1.81157
H      0.59033    -1.26495    -0.79601
C      1.72907    -2.69422     1.63741
O      2.29533    -3.09892     0.39897
H      2.21015    -1.76093     1.91916
H      1.86178    -3.90302     0.11613
H      0.65603    -2.52294     1.55180
H      1.91726    -3.42633     2.42704
C      0.98718     2.17267     1.44393
O      1.35984     0.79592     1.37833
H      0.21027     2.29379     2.20086
H      1.63760     0.62139     0.44961
H      1.84439     2.78613     1.72354
H      0.59820     2.51480     0.48340
C     -2.83191    -0.44754    -1.13227
O     -2.13603     0.57906    -0.44957
H     -3.38695    -1.08014    -0.43783
H     -1.72492     0.18751     0.35006
H     -3.53718     0.00300    -1.82863
H     -2.13925    -1.08103    -1.69441
C     -1.38859    -0.69285     2.99067
O     -0.94459    -0.51428     1.65954
H     -1.41318     0.25720     3.52940
H     -0.03999    -0.12507     1.68278
H     -2.39409    -1.10706     2.96283
H     -0.74184    -1.38653     3.53232
