 60
-1158.1012355226662
C      2.30400    -1.98833    -1.88778
O      0.98562    -2.29108    -1.46852
H      2.89710    -2.90441    -1.85349
H      0.48423    -1.46337    -1.48482
H      2.32761    -1.61397    -2.91517
H      2.77772    -1.24966    -1.23940
C      1.64190     2.85593    -0.30873
O      2.00384     1.89784    -1.30332
H      2.03859     3.83550    -0.57677
H      2.87598     1.53302    -1.03729
H      0.55906     2.92809    -0.23862
H      2.04664     2.57518     0.66302
C      5.04899     1.84830     0.45797
O      4.23705     0.89973    -0.21130
H      5.24229     2.68439    -0.21267
H      3.85572     0.30251     0.46845
H      4.55565     2.22879     1.35500
H      6.00495     1.40800     0.74707
C     -2.74408    -2.56129    -1.57925
O     -2.79266    -1.74886    -0.41874
H     -3.10500    -3.56817    -1.36542
H     -2.19395    -2.14603     0.25434
H     -3.39364    -2.12202    -2.33652
H     -1.73003    -2.62917    -1.97631
C      2.96747    -1.98320     1.55361
O      2.85146    -0.57060     1.52578
H      2.34292    -2.44279     0.78568
H      1.90234    -0.36848     1.40448
H      4.00786    -2.25713     1.37748
H      2.67518    -2.37160     2.53135
C     -0.39622    -3.92280     1.09313
O     -1.06185    -2.68676     1.33458
H      0.02938    -3.94837     0.09171
H     -0.40952    -1.97262     1.39214
H      0.39973    -4.08970     1.82219
H     -1.12712    -4.72100     1.20004
C     -4.88393     0.86726    -0.11506
O     -3.47364     0.80657    -0.01658
H     -5.20876     0.70352    -1.14575
H     -3.20539    -0.12779    -0.15579
H     -5.35467     0.11552     0.52102
H     -5.22336     1.85182     0.20415
C     -1.10947     0.77519    -2.24569
O     -0.04108     0.27661    -1.43745
H     -1.92262     0.05938    -2.20478
H      0.74209     0.88738    -1.51150
H     -1.45622     1.73560    -1.87232
H     -0.77955     0.88486    -3.27824
C     -0.50021     0.58603     2.03835
O      0.25778    -0.19468     1.11956
H     -0.30789     0.20520     3.03947
H      0.01417     0.02874     0.19252
H     -0.20722     1.63321     1.99858
H     -1.56772     0.51670     1.83810
C     -2.72295     4.04821     0.93419
O     -1.90980     3.04073     0.37130
H     -2.15577     4.97847     0.96743
H     -2.46469     2.25680     0.23189
H     -3.62457     4.22166     0.34036
H     -3.02907     3.79570     1.95492
