 42
-810.6630978057633
C      0.68864    -0.36498     3.13482
O      0.63450     0.03863     1.77918
H      1.63732    -0.03928     3.55515
H     -0.21612    -0.28765     1.37754
H     -0.12795     0.07769     3.70820
H      0.62247    -1.45055     3.21136
C     -2.79491    -0.14411     0.80221
O     -1.54199    -0.80774     0.65376
H     -2.92216     0.61494     0.03455
H     -1.43712    -1.08403    -0.28132
H     -3.61344    -0.86423     0.76210
H     -2.81330     0.33777     1.78006
C      1.36297    -3.29922    -0.02689
O      1.48828    -2.51666    -1.20748
H      2.33929    -3.64116     0.31549
H      2.05449    -1.75035    -0.97756
H      0.88616    -2.73521     0.77660
H      0.74901    -4.16999    -0.25322
C      2.11401     0.75067    -1.24356
O      2.57153    -0.21537    -0.29574
H      1.11611     0.50356    -1.61125
H      2.05618    -0.09916     0.51685
H      2.09140     1.75145    -0.81353
H      2.80696     0.73872    -2.08140
C     -1.57846    -2.36695    -2.86946
O     -0.92828    -1.59807    -1.87242
H     -1.82557    -3.36556    -2.49851
H     -0.02783    -1.96932    -1.74391
H     -2.49715    -1.85513    -3.15087
H     -0.94786    -2.46768    -3.75527
C     -1.35378     2.15429    -1.82437
O     -1.61535     2.58238    -0.50469
H     -2.28602     2.20514    -2.38652
H     -0.77521     2.68631    -0.03693
H     -0.62081     2.79286    -2.32724
H     -0.99334     1.12257    -1.85377
C      0.25856     3.44170     2.27776
O      0.68336     2.72571     1.13191
H     -0.73649     3.12339     2.60224
H      0.74561     1.78948     1.38612
H      0.95476     3.31001     3.10933
H      0.21920     4.49838     2.02466
