 36
-694.8495577004751
C     -0.98280     2.40869    -1.34861
O     -0.97671     1.80548    -0.05598
H     -0.23170     3.19769    -1.35304
H     -1.29684     0.89074    -0.11807
H     -0.73874     1.67728    -2.11901
H     -1.95677     2.85430    -1.55753
C      2.03246     0.23714    -0.42093
O      1.22611    -0.83760    -0.88202
H      2.24012     0.15094     0.64566
H      0.39817    -0.84520    -0.37920
H      2.97497     0.19134    -0.96410
H      1.56157     1.20039    -0.60980
C      1.18606    -1.84589     2.64082
O      0.03026    -1.02080     2.60563
H      1.80900    -1.61343     3.50485
H      0.31113    -0.08297     2.60441
H      0.85884    -2.87972     2.71978
H      1.77719    -1.72764     1.73174
C      0.34603    -1.06089    -4.54226
O     -0.28970    -0.68161    -3.33748
H      0.67787    -2.10331    -4.51909
H      0.33863    -0.76152    -2.60814
H     -0.37335    -0.95005    -5.35403
H      1.21152    -0.42829    -4.76442
C     -1.91802    -2.09143    -0.19558
O     -1.28578    -0.93208     0.33345
H     -1.84325    -2.06252    -1.28114
H     -0.96397    -1.10051     1.24828
H     -1.42691    -2.99342     0.17238
H     -2.96939    -2.11462     0.09164
C     -0.19490     2.43700     3.15672
O      0.47337     1.65395     2.17698
H     -1.21693     2.08209     3.31650
H      0.00924     1.80230     1.32659
H      0.35551     2.36420     4.09335
H     -0.23385     3.48451     2.85358
