 42
-810.6642806554823
C     -0.96818    -2.66012     2.86472
O     -0.76563    -1.55988     1.99984
H     -0.76796    -2.34234     3.88764
H     -0.92446    -1.87264     1.07576
H     -1.99268    -3.03041     2.80014
H     -0.28641    -3.47514     2.61561
C      0.01310    -2.93648    -1.05811
O     -1.12892    -2.30500    -0.49485
H      0.40449    -3.65133    -0.33551
H     -1.37453    -1.55758    -1.07989
H     -0.26001    -3.48408    -1.96094
H      0.79711    -2.21678    -1.29782
C     -0.72442     1.44922     3.53630
O     -1.35444     0.97632     2.36006
H     -0.71206     2.53866     3.51816
H     -1.18157     0.00688     2.30638
H     -1.26754     1.12014     4.42351
H      0.30357     1.08640     3.60581
C      3.98253     0.00469    -2.61471
O      2.86378    -0.58910    -1.99306
H      3.69648     0.85967    -3.23435
H      2.40846     0.10785    -1.49423
H      4.72280     0.34245    -1.88269
H      4.45240    -0.74045    -3.25542
C     -0.75314     0.16668    -3.00391
O     -1.59996    -0.05683    -1.88732
H      0.29786     0.18682    -2.71538
H     -1.48460     0.68638    -1.27138
H     -0.90599    -0.64370    -3.71454
H     -1.00248     1.10343    -3.50650
C      1.94538     0.93708     0.84879
O      1.57085     1.26355    -0.48655
H      1.31636     0.14093     1.25157
H      0.66359     1.60586    -0.46828
H      2.97698     0.58820     0.84250
H      1.88646     1.81039     1.50125
C     -1.96351     3.09036    -0.20197
O     -1.14413     1.94409    -0.05035
H     -2.99424     2.85613     0.06463
H     -1.25152     1.62184     0.88382
H     -1.60489     3.89874     0.43624
H     -1.92809     3.41666    -1.23955
