 42
-810.6642679769739
C     -3.49170     0.89075     2.07185
O     -2.09649     1.11114     1.96150
H     -3.72736    -0.16936     1.94625
H     -1.88284     1.08424     1.01292
H     -3.81763     1.21101     3.05937
H     -4.04435     1.45969     1.32031
C      0.50961     0.05778     4.20472
O     -0.18115    -0.57462     3.14877
H     -0.10841     0.14231     5.10357
H     -0.87008     0.02924     2.83799
H      1.39020    -0.53798     4.44596
H      0.84106     1.06302     3.92555
C      1.52538    -2.50992    -3.35764
O      1.26490    -1.98889    -2.06730
H      1.39878    -1.74575    -4.12775
H      1.77672    -1.15300    -1.97733
H      2.54386    -2.90012    -3.41772
H      0.82971    -3.32525    -3.55202
C      3.77090     0.18289    -1.04744
O      2.57121     0.30659    -1.79289
H      3.62799     0.50890    -0.01673
H      2.02176     0.99551    -1.36481
H      4.08137    -0.86273    -1.04020
H      4.56378     0.77889    -1.50176
C     -2.24159     1.37451    -1.85197
O     -1.59338     0.83851    -0.71123
H     -1.62210     1.23560    -2.73875
H     -1.47936    -0.14299    -0.86174
H     -3.20360     0.88619    -2.00503
H     -2.40182     2.43760    -1.68710
C      1.13204     1.92883     0.94182
O      0.91138     1.94826    -0.46401
H      2.05054     2.47759     1.14460
H      0.00162     1.63936    -0.60731
H      0.31730     2.41673     1.47632
H      1.23400     0.91110     1.32317
C     -1.18178    -2.39899     0.21416
O     -1.16982    -1.69883    -1.03148
H     -2.13523    -2.21286     0.70820
H     -0.29458    -1.87079    -1.45164
H     -1.08682    -3.47082     0.04490
H     -0.37640    -2.06602     0.86956
