 48
-926.4757669526415
C     -0.83473    -1.48719     3.66370
O     -1.79430    -1.23160     2.65356
H     -0.69150    -2.55934     3.82044
H     -1.40888    -1.47821     1.80645
H      0.13184    -1.03677     3.43002
H     -1.19836    -1.05377     4.59507
C      0.44816    -2.98609    -0.06998
O     -0.12931    -1.73037     0.26389
H      1.33085    -2.84487    -0.68984
H      0.57873    -1.14891     0.65888
H      0.71486    -3.52856     0.83729
H     -0.28389    -3.57564    -0.61937
C     -1.09023    -1.21350    -2.83653
O     -1.19874    -0.37438    -1.69361
H     -1.96002    -1.86725    -2.90504
H     -0.87820    -0.89946    -0.92142
H     -1.05209    -0.58793    -3.72617
H     -0.18620    -1.81858    -2.78581
C      0.87339     2.65958    -1.60598
O      1.00930     1.28335    -1.93069
H      1.85172     3.12685    -1.70874
H      0.13424     0.86710    -1.87950
H      0.17987     3.15740    -2.28642
H      0.52449     2.78586    -0.58272
C     -3.57175     1.05122     0.49169
O     -2.40199     1.59848    -0.11862
H     -4.10656     1.85898     0.98734
H     -2.14421     1.01570    -0.85122
H     -4.22556     0.60718    -0.25963
H     -3.30582     0.29180     1.22723
C      2.72884     0.42902     0.86479
O      1.46584    -0.01929     1.34117
H      3.30929    -0.43185     0.53808
H      0.86163     0.75251     1.45448
H      2.61000     1.10824     0.02297
H      3.28019     0.92661     1.66440
C     -0.90181     2.07954     2.87581
O     -0.37301     1.88202     1.57530
H     -1.49474     1.22293     3.18789
H     -1.12367     1.82057     0.94371
H     -0.07693     2.21709     3.57491
H     -1.52267     2.97618     2.91134
C      3.43539    -0.94075    -3.10919
O      2.47959    -1.07626    -2.07228
H      3.94804    -1.89501    -3.23206
H      1.99386    -0.23795    -1.99221
H      2.96445    -0.67768    -4.06170
H      4.18342    -0.17622    -2.87353
