 42
-810.6676629875558
C     -0.82454    -2.85987    -1.31193
O      0.27502    -2.15455    -1.86687
H     -1.08128    -2.48328    -0.32007
H      0.93007    -2.03232    -1.14730
H     -1.68354    -2.73623    -1.97079
H     -0.60216    -3.92620    -1.24747
C      1.87433    -2.83353     1.17407
O      1.87479    -1.77371     0.23094
H      2.61472    -2.66158     1.95754
H      1.67775    -0.95444     0.71952
H      0.89316    -2.95468     1.63588
H      2.13965    -3.75731     0.66248
C     -1.95017    -0.50759     2.97905
O     -1.08400    -1.19495     2.10188
H     -2.82096    -1.13392     3.16601
H     -0.29044    -0.65700     1.99319
H     -1.46978    -0.28643     3.93783
H     -2.29644     0.43751     2.54999
C      0.70708     0.67983    -3.53772
O     -0.49508     0.09885    -3.05338
H      0.45095     1.51307    -4.18998
H     -0.24571    -0.76446    -2.65003
H      1.32596     1.04889    -2.71516
H      1.28580    -0.04412    -4.11147
C     -2.50614     1.03404    -0.54944
O     -1.54700     1.78948    -1.27838
H     -2.05173     0.18101    -0.03819
H     -1.23106     1.21489    -2.01367
H     -2.96649     1.68743     0.19156
H     -3.29136     0.66872    -1.21009
C      2.16251     0.84467     2.60453
O      1.21555     0.41841     1.64070
H      2.69850    -0.02511     2.97930
H      0.91963     1.22073     1.13371
H      2.87850     1.53649     2.16321
H      1.65882     1.33554     3.43838
C     -0.02426     3.64819     1.10851
O      0.40834     2.52204     0.36276
H     -0.64521     4.30154     0.49801
H     -0.29164     2.32401    -0.30544
H     -0.60229     3.33578     1.98308
H      0.84727     4.20651     1.44255
