 54
-1042.2813718550792
C     -2.31448    -2.89980     3.56781
O     -1.73659    -1.84514     2.82842
H     -3.40680    -2.88322     3.51717
H     -2.08634    -1.89353     1.92263
H     -1.97198    -3.87847     3.21669
H     -2.01924    -2.79055     4.61049
C     -2.37412     1.65206     2.10675
O     -1.91504     2.00738     0.80498
H     -2.26885     2.49627     2.79127
H     -0.95379     1.84050     0.79510
H     -3.42988     1.38978     2.05156
H     -1.82917     0.79569     2.50080
C     -1.83353    -2.69481    -0.59820
O     -2.67622    -1.97523     0.28199
H     -2.33221    -2.87197    -1.55463
H     -2.92514    -1.13215    -0.15126
H     -0.89627    -2.16590    -0.77844
H     -1.60650    -3.66224    -0.15173
C      3.58590     0.97291    -3.60804
O      2.88556     0.69371    -2.40751
H      4.54064     1.45400    -3.39265
H      2.96289     1.46725    -1.80177
H      3.77137     0.03109    -4.11715
H      2.99496     1.62400    -4.25424
C      2.73407    -2.17447    -0.01630
O      3.51516    -0.98999    -0.04402
H      2.89390    -2.65714     0.94619
H      3.40853    -0.56715    -0.90322
H      1.67037    -1.95434    -0.11586
H      3.02402    -2.87208    -0.80602
C      4.10343     2.33182     0.39100
O      2.95838     2.46217    -0.45241
H      4.99067     2.51448    -0.21211
H      2.16927     2.26934     0.07730
H      4.07102     3.06899     1.19374
H      4.16016     1.32963     0.81233
C     -4.72585     0.69817    -0.55921
O     -3.35605     0.39679    -0.77304
H     -4.85745     1.73471    -0.24650
H     -2.82689     1.07158    -0.29419
H     -5.27472     0.54254    -1.48647
H     -5.14754     0.04581     0.21057
C     -0.58585     0.31659    -2.41901
O      0.45148    -0.23262    -1.60503
H     -1.38758    -0.41176    -2.52119
H      1.30338    -0.05292    -2.03825
H     -0.99895     1.22104    -1.96953
H     -0.20177     0.56864    -3.40873
C      0.95940     0.27870     1.84116
O      0.63520     1.10488     0.71805
H      1.98166    -0.08189     1.75709
H      0.53165     0.52547    -0.06689
H      0.86505     0.88271     2.74184
H      0.27930    -0.56812     1.92154
