 36
-694.8505684164729
C      1.62991     2.52543    -3.13836
O      0.34526     2.93059    -2.71805
H      1.62134     2.44870    -4.22403
H      0.29954     2.79311    -1.76728
H      2.38851     3.25992    -2.85565
H      1.91561     1.55576    -2.72118
C      2.02952     2.35533     0.63876
O      0.85576     1.85772     0.01563
H      2.73428     2.72531    -0.10563
H      1.08612     0.99114    -0.40152
H      1.74639     3.17900     1.28959
H      2.51855     1.58307     1.23437
C      0.60637    -3.76073     0.44907
O      0.35336    -2.40914     0.79501
H      0.32043    -4.43188     1.26068
H     -0.61016    -2.27454     0.89717
H      0.06277    -4.04602    -0.45453
H      1.67438    -3.87159     0.26852
C      0.07896    -0.74067    -1.92191
O      1.12946    -0.57585    -0.96651
H     -0.85643    -1.00123    -1.42533
H      0.96915    -1.24420    -0.26490
H     -0.05349     0.18746    -2.47403
H      0.33571    -1.52882    -2.62963
C     -3.50215    -1.78883     1.52440
O     -2.23450    -1.57552     0.92964
H     -3.95082    -2.66936     1.06901
H     -1.95272    -0.65934     1.13264
H     -3.40741    -1.95492     2.60021
H     -4.15874    -0.93388     1.35611
C     -0.24398     0.44268     2.73387
O     -1.04528     0.73333     1.59540
H     -0.90043     0.27203     3.58602
H     -0.48764     1.23686     0.97409
H      0.36696    -0.44646     2.56840
H      0.41405     1.28026     2.96741
