 60
-1158.0939671358644
C     -1.67301     3.19917    -0.84357
O     -1.39441     2.27533    -1.88924
H     -2.37313     3.96173    -1.18597
H     -2.14552     1.65872    -1.98341
H     -2.09960     2.68877     0.02244
H     -0.74533     3.67853    -0.54162
C      1.90224     1.15259    -1.95296
O      0.61905     0.68545    -2.35666
H      2.25977     1.91057    -2.64799
H     -0.04521     1.39525    -2.15756
H      1.87174     1.57181    -0.94704
H      2.59181     0.30972    -1.96865
C      3.61016     0.32457     2.16072
O      2.57575    -0.25675     2.94132
H      3.20479     0.94781     1.35964
H      2.28011    -1.06428     2.45873
H      4.22341     0.94727     2.81206
H      4.24364    -0.44062     1.71251
C     -2.38485    -3.98606    -1.48380
O     -1.98743    -3.44327    -0.24136
H     -2.53687    -3.21521    -2.24537
H     -1.32168    -2.76511    -0.39510
H     -1.64765    -4.70298    -1.85910
H     -3.32610    -4.51567    -1.33973
C     -0.69553    -0.25997     0.51901
O      0.03109    -1.19454    -0.29706
H     -1.59769     0.06843     0.01214
H      0.32147    -0.72051    -1.09381
H     -0.99120    -0.75453     1.44016
H     -0.09470     0.60614     0.78101
C      1.00668    -3.29637     2.19467
O      1.74670    -2.30670     1.48721
H     -0.00203    -3.39970     1.79242
H      1.18758    -1.99099     0.75553
H      1.51976    -4.25567     2.12577
H      0.94009    -3.01542     3.24753
C     -4.01416    -0.57977    -1.36867
O     -3.01350     0.09192    -2.12103
H     -3.61820    -1.47666    -0.89260
H     -2.47577    -0.54699    -2.61591
H     -4.36476     0.09981    -0.59213
H     -4.86442    -0.84385    -2.00016
C     -0.19841    -2.42347    -3.57501
O     -0.94777    -1.22032    -3.50179
H      0.11448    -2.76343    -2.58527
H     -0.32499    -0.49622    -3.31746
H     -0.83195    -3.18795    -4.02112
H      0.68592    -2.30031    -4.20274
C      2.21923     3.97531     1.47527
O      1.23579     3.05562     1.05213
H      3.07367     3.47589     1.94112
H      0.95329     2.56503     1.84395
H      2.57762     4.52590     0.60644
H      1.81828     4.69517     2.19353
C      0.77469     2.16597     4.61937
O      0.72147     1.62314     3.31333
H      1.78396     2.50751     4.86585
H      1.37437     0.89106     3.27168
H      0.09593     3.01619     4.66738
H      0.46403     1.42977     5.36296
