 42
-810.6628343132822
C     -2.72260     1.19108     0.15642
O     -1.90812     0.08502     0.52268
H     -2.82895     1.89724     0.98258
H     -1.04044     0.43359     0.77781
H     -2.30907     1.72156    -0.70117
H     -3.70753     0.81107    -0.10884
C     -2.37772    -2.75936     2.80432
O     -2.10157    -1.38917     3.00939
H     -1.81672    -3.16023     1.95391
H     -2.22699    -0.92794     2.17066
H     -2.08138    -3.30632     3.69947
H     -3.44173    -2.93686     2.62480
C     -1.14875    -0.07181    -2.78216
O      0.07626     0.63532    -2.68132
H     -1.38347    -0.59781    -1.85669
H     -0.04455     1.41286    -2.10182
H     -1.96860     0.60681    -3.02018
H     -1.06167    -0.79317    -3.59247
C      2.27942    -1.95967    -2.63004
O      2.17022    -0.78712    -1.84848
H      2.45285    -1.71887    -3.68063
H      1.42368    -0.26046    -2.21017
H      3.12597    -2.54328    -2.27145
H      1.37704    -2.57270    -2.56142
C      0.90158    -2.05238     0.92531
O      1.82100    -0.97449     0.78865
H      0.05689    -1.93549     0.24283
H      2.07057    -0.93678    -0.16156
H      1.39319    -3.00303     0.71830
H      0.51866    -2.08404     1.94296
C      1.52531     3.10160    -1.16734
O      0.21794     2.63725    -0.83062
H      1.96447     3.66471    -0.34171
H      0.27872     2.25508     0.06219
H      2.18565     2.26676    -1.41567
H      1.44305     3.75415    -2.03498
C      0.37030     1.27608     2.90333
O      0.55209     1.20901     1.49155
H      1.26801     1.66940     3.37841
H      1.16254     0.45443     1.29501
H     -0.46183     1.94602     3.10943
H      0.14022     0.29328     3.31268
