 36
-694.84963461676
C      0.62682     1.11583    -2.60053
O     -0.06483     0.24841    -1.70759
H      1.41194     0.54127    -3.08561
H     -0.67396     0.78344    -1.13625
H     -0.05389     1.49917    -3.36058
H      1.07649     1.94997    -2.06382
C      2.69395     3.04472     1.38124
O      2.23675     2.41928     0.19891
H      3.22299     3.95693     1.10581
H      2.09712     1.47691     0.37006
H      1.85924     3.31997     2.03498
H      3.37655     2.40508     1.94724
C      1.99947    -1.72109     0.50763
O      1.57266    -0.36924     0.40861
H      1.20397    -2.41769     0.23829
H      1.02145    -0.28073    -0.38774
H      2.86909    -1.90836    -0.12611
H      2.28625    -1.90656     1.54279
C     -2.04671    -2.87403    -1.92433
O     -0.94762    -2.39581    -1.15394
H     -2.73221    -2.06213    -2.17898
H     -0.57880    -1.61063    -1.59033
H     -1.69651    -3.35203    -2.84020
H     -2.57993    -3.61257    -1.32749
C     -0.90304     2.11006     1.12744
O     -1.55980     1.32292     0.14124
H     -0.47524     2.98681     0.64997
H     -1.82890     0.47876     0.56771
H     -1.61796     2.43843     1.88308
H     -0.10522     1.55337     1.61832
C     -1.21460    -1.44700     2.26600
O     -1.92671    -1.15271     1.07431
H     -1.71988    -0.95662     3.09634
H     -1.60357    -1.73898     0.36489
H     -1.20056    -2.52026     2.46106
H     -0.18886    -1.08283     2.20795
