 36
-694.8496881972394
C     -1.10307     1.10650    -3.97874
O     -0.52300     1.68973    -2.83013
H     -2.12806     0.77170    -3.79520
H     -0.94232     1.31965    -2.04081
H     -1.12018     1.84545    -4.78044
H     -0.51693     0.24748    -4.32261
C      1.33428     2.63009     0.08189
O      0.96741     1.35628     0.60010
H      2.39655     2.81386     0.24240
H      1.41920     0.64856     0.07062
H      1.11552     2.69444    -0.98382
H      0.76033     3.38610     0.61146
C     -0.88216    -2.72954     0.47541
O      0.32736    -2.21107     1.00608
H     -1.40753    -1.97456    -0.10995
H      0.11337    -1.60077     1.73552
H     -0.63840    -3.57256    -0.16882
H     -1.53944    -3.08499     1.27024
C      1.27211    -0.92409    -2.02742
O      1.76785    -0.75183    -0.70518
H      1.62933    -0.10493    -2.64484
H      1.32929    -1.42042    -0.13286
H      1.63901    -1.86247    -2.44505
H      0.18303    -0.93099    -2.05171
C     -2.54389     0.51826     0.58647
O     -1.49441     0.64008    -0.36271
H     -2.94986     1.49503     0.85805
H     -0.69033     0.92612     0.10392
H     -3.33910    -0.06814     0.12715
H     -2.21384     0.00690     1.49195
C      0.89462    -0.37068     3.88615
O     -0.00990    -0.17013     2.80363
H      1.92252    -0.46801     3.52807
H      0.32478     0.55286     2.24872
H      0.83647     0.45603     4.59552
H      0.60913    -1.28943     4.39646
