 60
-1158.0945895220093
C      2.80117    -3.53176    -2.02960
O      1.39476    -3.52273    -1.88470
H      3.03414    -3.64707    -3.08733
H      1.19855    -3.39839    -0.94887
H      3.25203    -2.59814    -1.67949
H      3.26074    -4.35932    -1.48226
C      0.67956     0.19810     3.12865
O      1.97624     0.55022     2.66150
H      0.79378    -0.41521     4.02007
H      1.87845     1.35671     2.11662
H      0.10630     1.08456     3.40108
H      0.11390    -0.35779     2.37882
C      1.77462     0.15088    -1.67805
O      0.67899     0.92675    -1.18961
H      2.46609    -0.09262    -0.87083
H      0.00484     0.27973    -0.87369
H      1.42163    -0.77469    -2.12552
H      2.29990     0.73594    -2.42937
C     -1.75399     2.69153    -3.07021
O     -1.07652     3.02596    -1.85760
H     -1.08583     2.17214    -3.75999
H     -0.35233     2.39371    -1.73546
H     -2.61808     2.05507    -2.87150
H     -2.09354     3.61229    -3.54040
C      4.16636    -2.04153     2.33066
O      3.15735    -1.52175     1.47399
H      5.15106    -1.71612     1.99358
H      2.80842    -0.70276     1.89748
H      4.01072    -1.70571     3.35588
H      4.13523    -3.13094     2.30999
C      0.55356    -3.48901     2.00180
O      0.97080    -2.78530     0.84512
H      1.05008    -4.45793     2.05512
H      1.84193    -2.35688     1.05196
H      0.78672    -2.92175     2.90235
H     -0.52234    -3.64943     1.95329
C     -2.19942     1.80094     1.15355
O     -2.90954     2.34509     0.04930
H     -2.77438     1.98349     2.05982
H     -2.26528     2.73735    -0.56607
H     -2.06542     0.72456     1.04258
H     -1.21824     2.26354     1.26506
C     -1.53615    -1.80067    -1.27291
O     -0.79934    -1.06949    -0.29132
H     -0.87816    -2.17567    -2.05783
H     -0.21143    -1.70503     0.16039
H     -2.05096    -2.64596    -0.81451
H     -2.28707    -1.14289    -1.70057
C      1.08174     3.84338     0.64120
O      1.49066     2.50287     0.88346
H      0.00646     3.90203     0.47385
H      1.23967     1.97856     0.10145
H      1.33900     4.44131     1.51285
H      1.59582     4.25173    -0.23005
C     -5.64145     0.59614    -1.31240
O     -4.25611     0.32224    -1.25732
H     -6.08470    -0.02823    -2.08828
H     -3.82623     1.03220    -0.75195
H     -6.13629     0.36688    -0.36377
H     -5.84102     1.64295    -1.56105
