 36
-694.8570287964158
C     -1.14721     2.96854    -1.56959
O     -0.05984     2.38896    -0.87834
H     -1.52340     3.84782    -1.04447
H     -0.40817     2.05597    -0.02161
H     -0.81333     3.28317    -2.55762
H     -1.96858     2.25646    -1.68973
C      1.20488    -3.54440     1.56087
O      0.45289    -2.75393     0.65342
H      0.69017    -3.57868     2.52201
H      1.09579    -2.19087     0.16890
H      1.30290    -4.56213     1.18087
H      2.20105    -3.12584     1.70473
C      2.38068    -0.08593     0.76122
O      2.22723    -1.02206    -0.30460
H      2.04393    -0.53741     1.69384
H      2.02319    -0.48808    -1.10149
H      3.42754     0.19953     0.86652
H      1.78628     0.80848     0.57350
C      0.57473     0.10084    -3.21732
O      1.43885     0.63194    -2.23183
H      0.12291     0.89618    -3.81133
H      0.93934     1.33357    -1.76368
H      1.14955    -0.53959    -3.88258
H     -0.22812    -0.48650    -2.76350
C     -2.55482    -1.47881     0.59505
O     -1.49241    -1.17468     1.48772
H     -2.51398    -2.52263     0.28765
H     -0.75896    -1.79253     1.26236
H     -3.50221    -1.29296     1.09841
H     -2.49657    -0.85242    -0.29909
C     -2.10448     2.04424     2.05567
O     -1.03374     1.42654     1.36733
H     -3.01398     2.04708     1.44953
H     -1.15320     0.45435     1.45422
H     -2.31533     1.52662     2.99145
H     -1.82938     3.07196     2.28617
