 48
-926.4817580807725
C     -0.38118    -1.53521     1.51420
O      0.00374    -2.26481     0.35289
H     -1.34719    -1.88242     1.88047
H     -0.82633    -2.52776    -0.09030
H      0.35931    -1.70387     2.29586
H     -0.44533    -0.46369     1.32551
C      0.13939     1.77334     3.33607
O      0.38190     1.92171     1.94957
H      0.93297     2.23086     3.92854
H      1.32193     1.68436     1.77956
H     -0.80389     2.25615     3.58632
H      0.07506     0.71637     3.60872
C     -3.61695    -3.18819    -0.74573
O     -2.41722    -2.44419    -0.82408
H     -4.30556    -2.90687    -1.54564
H     -2.65991    -1.49352    -0.81208
H     -3.37837    -4.24465    -0.84749
H     -4.11907    -3.03022     0.21208
C      4.26721     0.56130    -1.80515
O      3.06268     1.08728    -1.27804
H      4.26041    -0.53017    -1.78241
H      2.35442     0.44081    -1.48468
H      4.41186     0.89004    -2.83574
H      5.10550     0.91819    -1.20639
C     -3.89451     0.35661     0.51994
O     -3.05665     0.13441    -0.60127
H     -3.42664    -0.01410     1.43683
H     -2.31663     0.77619    -0.52307
H     -4.10622     1.41862     0.64572
H     -4.83931    -0.16690     0.37524
C      3.06740    -0.24421     1.72079
O      2.85722     1.11911     1.38850
H      2.49746    -0.91087     1.07280
H      3.03125     1.20966     0.42527
H      4.12326    -0.50441     1.64603
H      2.75749    -0.40906     2.75269
C     -0.46817     2.71788    -1.18351
O     -1.10030     1.84367    -0.25912
H     -0.41246     3.72998    -0.78185
H     -0.60713     1.90526     0.58384
H      0.54053     2.37811    -1.42279
H     -1.06135     2.74065    -2.09763
C      0.13709    -0.69569    -2.49419
O      1.21264    -0.79543    -1.56981
H     -0.53263     0.11668    -2.21529
H      0.90489    -1.34946    -0.82564
H      0.54439    -0.50186    -3.48519
H     -0.43534    -1.62218    -2.52809
