 48
-926.4793571387556
C      0.54778     0.59349     2.42121
O      0.17706    -0.77093     2.22034
H      0.01242     1.25844     1.74508
H     -0.80161    -0.77716     2.11030
H      0.34703     0.88801     3.45179
H      1.61511     0.70046     2.23584
C      1.50876     3.80112     0.69222
O      1.11032     2.78718    -0.20726
H      0.69065     4.51449     0.78969
H      1.81412     2.12587    -0.23104
H      1.72900     3.39354     1.68362
H      2.39505     4.33386     0.33627
C     -3.19345    -0.02162     2.91704
O     -2.43711    -0.55370     1.84649
H     -2.85296    -0.47138     3.84897
H     -2.71190    -0.08126     1.02661
H     -3.07308     1.06238     2.98741
H     -4.25370    -0.24515     2.79254
C      1.00001    -0.03670    -2.74041
O      0.50694    -1.24939    -2.18668
H      2.07897    -0.07890    -2.87865
H      0.93029    -1.37846    -1.32098
H      0.53662     0.11304    -3.71487
H      0.75871     0.81518    -2.10413
C     -2.56258    -2.42717    -1.57630
O     -2.16999    -1.18343    -2.14365
H     -1.81207    -3.19714    -1.75974
H     -1.19355    -1.20123    -2.22757
H     -2.70156    -2.32549    -0.49707
H     -3.50348    -2.74121    -2.02407
C      4.21573     0.52604    -0.96724
O      3.00763     0.72069    -0.25197
H      4.28917    -0.49710    -1.34432
H      2.62981    -0.15131    -0.04601
H      4.24462     1.20997    -1.81582
H      5.07692     0.72511    -0.32720
C     -2.40466     1.90004    -0.73044
O     -3.03505     0.66253    -0.43721
H     -2.80148     2.65548    -0.05468
H     -2.78729     0.03893    -1.15647
H     -1.32135     1.84290    -0.60117
H     -2.61766     2.20545    -1.75511
C      1.95945    -2.97800     0.41475
O      1.63338    -1.60438     0.28527
H      2.45746    -3.15975     1.36596
H      1.03877    -1.36373     1.05582
H      1.05397    -3.58345     0.36144
H      2.62591    -3.26105    -0.39830
