 60
-1158.0938190729348
C      4.15432    -2.08537    -3.14857
O      3.84509    -0.71150    -2.99078
H      3.93356    -2.64626    -2.23773
H      3.69718    -0.53520    -2.03852
H      3.56264    -2.50442    -3.96506
H      5.21112    -2.20976    -3.38696
C      1.90339     1.66729    -4.52562
O      1.59156     0.42502    -3.91612
H      2.57635     2.25965    -3.90040
H      2.43933    -0.02977    -3.72205
H      2.37075     1.51864    -5.49979
H      0.97847     2.22385    -4.67070
C     -0.44257     1.68119    -1.34405
O      0.41836     0.55891    -1.54188
H     -1.48335     1.36177    -1.32038
H      0.74222     0.56790    -2.47201
H     -0.19473     2.16876    -0.40467
H     -0.32190     2.40343    -2.14968
C     -4.59281     0.71948     0.91618
O     -3.24965     0.58652     0.46367
H     -4.80901     1.77653     1.06626
H     -3.07415    -0.37630     0.34752
H     -5.28823     0.32955     0.17263
H     -4.73855     0.19580     1.85998
C     -2.49128    -0.54445     4.99948
O     -3.15233     0.20192     3.99581
H     -1.83930    -1.30775     4.56211
H     -2.50748     0.75837     3.54292
H     -1.88414     0.08577     5.65496
H     -3.24644    -1.04730     5.60207
C      0.88381    -2.60110    -1.45320
O     -0.30102    -1.95141    -1.01505
H      1.67220    -2.51346    -0.70424
H     -0.15548    -0.99480    -1.14130
H      0.66071    -3.65497    -1.61515
H      1.24799    -2.17177    -2.38598
C     -2.26312    -2.37353     1.68930
O     -2.61066    -1.99571     0.36296
H     -2.14310    -3.45459     1.76178
H     -1.81786    -2.12433    -0.19400
H     -1.32976    -1.89469     1.99485
H     -3.05234    -2.06612     2.37309
C      3.83693     0.89168     0.13022
O      3.08024    -0.15619    -0.47231
H      4.79669     0.47680     0.43392
H      2.15977     0.13792    -0.55845
H      4.01746     1.70312    -0.58017
H      3.31459     1.28684     0.99948
C     -1.76169     3.22219     1.86810
O     -1.55739     1.83266     2.05990
H     -2.27990     3.41713     0.92746
H     -2.14268     1.35521     1.42510
H     -2.34907     3.63255     2.69081
H     -0.79338     3.72484     1.84348
C      1.08769    -0.23639     2.16224
O      1.03889     1.15093     1.90341
H      2.12568    -0.54257     2.28425
H      0.11241     1.42407     2.01121
H      0.55245    -0.49913     3.07923
H      0.66104    -0.81969     1.34179
