 36
-694.8507434901381
C      0.27065     1.24313    -2.45811
O     -1.08205     1.63920    -2.56031
H      0.85902     1.86880    -3.12959
H     -1.55181     1.24773    -1.81893
H      0.66538     1.36112    -1.44629
H      0.40010     0.20129    -2.75976
C      2.77162     1.36298     2.25651
O      1.83172     1.28492     1.20114
H      2.67493     0.51510     2.93955
H      1.99761     0.44990     0.71543
H      3.79327     1.38271     1.87072
H      2.59669     2.28392     2.80963
C      2.94013    -1.31356    -1.07513
O      1.98127    -1.06977    -0.06181
H      2.69095    -0.78170    -1.99489
H      1.10311    -1.33908    -0.40558
H      3.91263    -0.96814    -0.72552
H      3.00960    -2.38045    -1.29676
C     -0.95229    -2.96848    -0.42333
O     -0.43829    -1.75650    -0.95822
H     -1.49692    -3.52805    -1.18557
H     -1.12938    -1.07291    -0.90959
H     -0.11751    -3.57741    -0.07546
H     -1.61782    -2.77250     0.42107
C     -3.56952     0.53105    -0.05848
O     -2.18935     0.32209    -0.30972
H     -3.90946    -0.10638     0.76038
H     -1.68135     0.69171     0.45424
H     -3.75985     1.57320     0.19761
H     -4.12250     0.27718    -0.95903
C     -0.68776    -0.21204     2.51290
O     -0.75105     1.00674     1.78083
H     -1.63664    -0.73737     2.40083
H      0.17865     1.26945     1.60119
H      0.11385    -0.85549     2.14661
H     -0.52896    -0.01298     3.57338
