 42
-810.6689528512364
C     -3.34415    -1.58389     0.76646
O     -2.24636    -1.47825     1.65484
H     -4.16122    -0.92901     1.07172
H     -2.00066    -0.52758     1.70481
H     -3.05925    -1.32308    -0.25636
H     -3.70066    -2.61210     0.77645
C      0.99432    -2.43517     1.32595
O     -0.16206    -2.74571     0.55954
H      1.02679    -3.04284     2.23004
H     -0.93990    -2.40779     1.05795
H      1.87217    -2.66611     0.72458
H      1.02237    -1.37980     1.60501
C     -1.60898     1.63523     0.26369
O     -1.50072     1.08441     1.57129
H     -2.62613     1.99366     0.11651
H     -0.56156     1.19783     1.83072
H     -0.92429     2.47210     0.13785
H     -1.38963     0.89095    -0.50303
C      0.14952     1.40313    -3.31491
O      0.86572     0.73918    -2.29544
H      0.68536     2.31192    -3.58606
H      0.39900    -0.09976    -2.09444
H      0.06249     0.77580    -4.20380
H     -0.85630     1.67506    -2.98414
C     -0.95595    -2.36198    -2.70320
O     -0.42309    -1.48770    -1.72837
H     -1.90791    -2.77791    -2.36756
H     -0.28358    -2.01093    -0.90142
H     -1.12916    -1.80549    -3.62451
H     -0.26852    -3.18284    -2.91114
C      1.45157     2.45498     2.92794
O      1.08694     1.42815     2.02471
H      0.89128     2.32377     3.85246
H      1.54243     1.61156     1.17536
H      2.51741     2.41009     3.16112
H      1.22579     3.44168     2.51618
C      3.54180     1.29741    -0.44277
O      2.23970     1.84888    -0.34602
H      3.53505     0.23048    -0.20309
H      1.72169     1.48223    -1.09724
H      3.94088     1.42386    -1.44954
H      4.19717     1.81377     0.25709
