 36
-694.8552406857257
C     -1.56272     2.42074     0.31606
O     -0.14843     2.53286     0.25910
H     -1.87063     1.41083     0.58967
H      0.19708     2.17035     1.10454
H     -1.97524     3.11987     1.04310
H     -1.97048     2.66805    -0.66310
C      1.94995     1.61628    -2.26815
O      1.17956     0.87130    -1.34399
H      1.30991     2.22647    -2.90912
H      0.66320     1.49604    -0.78393
H      2.65603     2.26948    -1.75078
H      2.51274     0.92405    -2.89486
C     -1.69607    -1.74993     2.43308
O     -0.88736    -1.05867     1.49958
H     -1.29500    -1.58774     3.43379
H     -1.25487    -1.20105     0.59689
H     -2.72508    -1.38372     2.40520
H     -1.70052    -2.82299     2.22958
C      1.48910    -2.50174    -0.89425
O      0.71335    -1.73858    -1.80452
H      2.55557    -2.37762    -1.08982
H      0.95512    -0.79951    -1.67501
H      1.28468    -2.21156     0.13860
H      1.23472    -3.55137    -1.02550
C     -2.28322    -0.38782    -1.71797
O     -1.80135    -1.48853    -0.96090
H     -3.14315     0.03736    -1.20257
H     -0.95802    -1.76915    -1.37947
H     -1.51560     0.37817    -1.83372
H     -2.60495    -0.71246    -2.70700
C      2.04472     0.65513     2.11007
O      0.67815     1.00007     2.27236
H      2.36101    -0.06013     2.87077
H      0.14325     0.20850     2.06247
H      2.23126     0.22906     1.12345
H      2.63973     1.55927     2.22277
