 60
-1158.0909142245164
C      2.75020     1.80667    -1.62888
O      1.33169     1.70967    -1.61390
H      3.20950     0.88825    -1.26577
H      1.04291     1.98803    -0.72065
H      3.07373     1.99753    -2.65126
H      3.08465     2.63393    -1.00199
C      1.60727    -1.34438    -2.74603
O      0.46224    -0.70120    -2.19818
H      2.22052    -1.74453    -1.94296
H      0.71385     0.22230    -1.95384
H      1.27939    -2.15574    -3.39497
H      2.19811    -0.64447    -3.33353
C      3.46282    -0.23456     1.40942
O      2.58317    -0.86679     0.49806
H      4.45375    -0.19538     0.95442
H      1.67378    -0.71712     0.79899
H      3.16444     0.78891     1.65451
H      3.55017    -0.79465     2.34164
C     -0.45555     2.96843     1.21334
O      0.74191     2.25364     0.94088
H     -0.73729     2.88605     2.26318
H      0.65941     1.36241     1.32579
H     -0.28256     4.01649     0.98083
H     -1.28251     2.60539     0.60745
C      0.04641    -3.63824    -0.24832
O     -0.93222    -2.63688    -0.47760
H      1.00420    -3.21352     0.06151
H     -0.50322    -1.86857    -0.87949
H     -0.31320    -4.29311     0.54448
H      0.20304    -4.25194    -1.13885
C      0.04323    -1.34428     2.63764
O      0.08826    -0.35054     1.61858
H      1.03940    -1.50834     3.04237
H     -0.85125    -0.19482     1.33319
H     -0.60541    -1.03309     3.45676
H     -0.33334    -2.27691     2.22552
C     -2.54772    -1.96728    -3.32903
O     -1.96581    -0.67475    -3.26512
H     -3.54242    -1.87545    -3.76111
H     -1.03148    -0.76496    -2.98790
H     -1.95848    -2.63227    -3.96500
H     -2.62785    -2.41300    -2.33724
C     -2.45213     2.32587    -1.95793
O     -2.84972     1.05828    -1.45877
H     -2.88220     3.10028    -1.32263
H     -2.61006     0.39266    -2.14408
H     -1.36502     2.42180    -1.95954
H     -2.81873     2.47982    -2.97318
C      1.56333     1.73822     4.19830
O      2.60350     0.80450     4.45356
H      1.30678     2.31432     5.08988
H      3.40455     1.28641     4.66102
H      1.81770     2.42694     3.39145
H      0.68906     1.16866     3.89555
C     -3.29845    -0.94631     1.13763
O     -2.39792     0.14718     0.98392
H     -3.13631    -1.68561     0.35506
H     -2.58002     0.54000     0.09751
H     -3.12242    -1.41740     2.10526
H     -4.33251    -0.60041     1.10293
