 60
-1158.094875652059
C     -0.04944    -2.93768    -1.95901
O     -0.64141    -1.79196    -1.36960
H      0.00099    -2.80500    -3.04014
H     -0.26284    -1.69605    -0.47116
H      0.96440    -3.09276    -1.58890
H     -0.63943    -3.83231    -1.74630
C      0.91440     0.05729    -4.03710
O      0.89878     1.46315    -4.14030
H      0.83498    -0.28812    -3.00378
H      0.02061     1.76786    -3.88960
H      0.10699    -0.40668    -4.61255
H      1.86282    -0.29461    -4.44252
C      1.03871     1.77341    -0.77690
O      0.01606     2.75357    -0.89255
H      1.67340     1.75723    -1.66134
H     -0.49251     2.55937    -1.69878
H      1.65984     2.03033     0.08069
H      0.63242     0.77318    -0.61507
C     -2.66485     3.00451    -3.21279
O     -1.62804     2.06839    -2.97341
H     -3.40465     2.59536    -3.90113
H     -2.02994     1.18745    -2.79479
H     -3.16479     3.27108    -2.27940
H     -2.22958     3.89843    -3.65073
C      3.40824    -2.66507     5.11935
O      2.40961    -1.94258     4.42726
H      2.92494    -3.29072     5.87000
H      2.74375    -1.71548     3.54640
H      3.97908    -3.31294     4.44833
H      4.10601    -1.99402     5.62913
C     -0.01935    -2.83976     1.76675
O      0.33408    -1.64277     1.07567
H      0.07857    -3.68276     1.08233
H      0.06908    -0.88169     1.66095
H      0.63240    -3.00067     2.62518
H     -1.05462    -2.78898     2.10521
C     -3.45459    -1.19097    -3.05963
O     -2.54562    -0.33251    -2.39502
H     -3.69909    -2.05160    -2.43550
H     -1.85433    -0.90768    -1.99403
H     -4.37126    -0.64252    -3.26908
H     -3.03185    -1.55174    -4.00085
C      0.20191     0.79867     3.79301
O     -0.32977     0.36099     2.54718
H     -0.59971     1.11762     4.45903
H     -0.77592     1.13847     2.13235
H      0.74894    -0.01616     4.25679
H      0.88009     1.64098     3.64384
C      3.35990     0.10938     1.71119
O      3.09220    -1.28034     1.80522
H      2.50877     0.70317     2.04601
H      2.27726    -1.45529     1.31614
H      4.21901     0.33368     2.34091
H      3.61343     0.38919     0.68622
C     -2.71160     2.01635     0.71120
O     -1.48667     2.41266     1.31785
H     -3.34444     2.88772     0.53713
H     -0.90223     2.70652     0.58795
H     -2.54386     1.49833    -0.23398
H     -3.23777     1.34501     1.38966
