 60
-1158.0909749711093
C      0.45323     1.07475     4.48108
O      0.88992     1.10366     3.13542
H      0.84346     1.95274     4.98851
H      0.60913     0.26150     2.71437
H     -0.63745     1.09041     4.53038
H      0.81559     0.18085     4.99173
C      0.06825     4.17704     1.10442
O     -0.61491     2.97043     1.41319
H     -0.47113     4.67357     0.29709
H     -0.10717     2.48881     2.07557
H      0.09437     4.84963     1.96638
H      1.09179     3.98641     0.77739
C      1.51303    -2.11181    -2.98690
O      0.16933    -1.86601    -2.58328
H      2.10665    -2.33809    -2.10250
H     -0.32711    -1.43440    -3.31528
H      1.56102    -2.96058    -3.66868
H      1.93714    -1.23879    -3.48769
C     -1.40422     0.94412    -3.78914
O     -1.53382    -0.43498    -4.08821
H     -1.35318     1.12932    -2.71495
H     -2.32169    -0.75737    -3.59556
H     -0.49057     1.30795    -4.25734
H     -2.24496     1.50876    -4.19173
C      3.72974    -2.70490     1.38096
O      2.63520    -2.14659     0.67626
H      3.46431    -3.65366     1.85605
H      1.91120    -1.98398     1.29038
H      4.52969    -2.89206     0.66491
H      4.11148    -2.02761     2.15104
C     -1.09487    -1.73962     2.23585
O      0.11431    -1.07604     1.88410
H     -1.94856    -1.06887     2.14773
H      0.00666    -0.78679     0.95283
H     -1.25318    -2.60218     1.59077
H     -1.01445    -2.08092     3.26434
C     -3.05713    -2.70790    -2.06855
O     -3.36185    -1.35583    -2.38768
H     -3.79085    -3.11581    -1.37135
H     -3.31930    -0.84006    -1.55592
H     -3.08163    -3.29710    -2.98371
H     -2.06318    -2.79537    -1.62926
C     -3.42162     1.34025    -0.03136
O     -2.88279     0.02538    -0.15012
H     -4.31564     1.28248     0.58540
H     -1.91737     0.08006    -0.24264
H     -2.70191     2.01020     0.43722
H     -3.69613     1.73754    -1.01247
C      3.99303     1.36444     1.44777
O      2.87351     2.22419     1.50463
H      4.55368     1.35655     2.38780
H      2.26041     1.87453     2.16406
H      3.70100     0.33960     1.20833
H      4.66017     1.72588     0.66444
C      0.91766     0.75436    -0.83689
O     -0.13413    -0.19709    -0.61878
H      1.85149     0.39818    -0.41065
H     -0.05350    -0.89694    -1.32030
H      1.06274     0.90149    -1.90310
H      0.64977     1.69712    -0.37374
