 42
-810.6638192312715
C     -0.37309     3.00655     1.94166
O     -0.59201     1.66015     1.55119
H      0.51538     3.41756     1.45712
H      0.21600     1.15064     1.80056
H     -1.23921     3.60198     1.65611
H     -0.24307     3.07679     3.02254
C     -0.18858    -1.79155    -2.72099
O     -0.37718    -1.59029    -1.32626
H     -1.14371    -1.76950    -3.24786
H     -0.72828    -0.68576    -1.19513
H      0.47422    -1.03476    -3.14089
H      0.26033    -2.77228    -2.86137
C      2.98727    -1.31137    -0.83168
O      1.92987    -1.50397     0.09431
H      3.24001    -2.25091    -1.32738
H      1.10685    -1.64415    -0.41103
H      2.72585    -0.56568    -1.57955
H      3.86698    -0.97584    -0.28266
C      1.94463     2.13759    -1.28436
O      1.23611     1.32356    -2.20362
H      1.52101     3.14498    -1.23529
H      0.31519     1.29238    -1.91719
H      1.95734     1.71733    -0.27580
H      2.97546     2.22618    -1.63050
C     -2.72957    -1.66322     1.37264
O     -2.95582    -2.06426     0.03611
H     -3.69790    -1.48501     1.83777
H     -2.10248    -2.25273    -0.36575
H     -2.21078    -2.43328     1.95029
H     -2.14635    -0.74228     1.42704
C      1.56353    -0.53571     3.27203
O      1.56475     0.21051     2.06707
H      0.77383    -1.29156     3.26717
H      1.75977    -0.42088     1.33274
H      2.52204    -1.03532     3.41644
H      1.39577     0.14432     4.10698
C     -2.66775     1.13774    -1.12140
O     -1.27705     0.96057    -0.88211
H     -3.25013     0.48793    -0.47313
H     -1.07686     1.26093     0.03978
H     -2.95764     2.17519    -0.95410
H     -2.87332     0.88540    -2.15987
