 42
-810.6687509873316
C     -2.16860    -0.94291     1.77212
O     -1.03352    -0.73769     2.60605
H     -2.06592    -1.89639     1.25329
H     -0.89623     0.23440     2.63586
H     -3.07994    -0.96683     2.36887
H     -2.24850    -0.14484     1.03181
C     -1.83949     3.47196    -0.85932
O     -1.37676     2.26973    -0.27618
H     -2.81055     3.71670    -0.43405
H     -0.55763     2.00839    -0.75174
H     -1.14974     4.29815    -0.66518
H     -1.95309     3.36318    -1.94031
C      1.62905    -3.98409    -1.13742
O      0.55563    -3.08934    -0.89487
H      2.04470    -3.78561    -2.12572
H      0.61428    -2.80178     0.04352
H      2.41511    -3.86433    -0.39170
H      1.27504    -5.01546    -1.10926
C      1.91227    -1.00487     1.22638
O      0.98859    -2.04745     1.50716
H      2.59788    -1.33388     0.44651
H      0.24801    -1.63459     2.00770
H      1.40760    -0.10153     0.88188
H      2.49638    -0.76786     2.11639
C     -1.21863    -0.86643    -2.46185
O      0.20393    -0.92047    -2.37717
H     -1.65277    -1.84860    -2.28051
H      0.42109    -1.75298    -1.89991
H     -1.62061    -0.16950    -1.72159
H     -1.50087    -0.52464    -3.45651
C      1.48504     2.22158    -2.51246
O      0.86051     1.47484    -1.48404
H      1.55920     3.26178    -2.19740
H      0.73222     0.55818    -1.82493
H      2.49120     1.84692    -2.70460
H      0.91262     2.17522    -3.44229
C      0.60597     2.33562     2.34492
O     -0.74662     1.90121     2.32420
H      0.99957     2.41758     1.32976
H     -1.09437     2.10271     1.43348
H      0.68790     3.30312     2.84063
H      1.21121     1.61511     2.89730
