 60
-1158.099083079416
C     -0.33802     3.91583    -2.14581
O     -0.44096     3.29962    -3.41045
H     -1.24950     3.79636    -1.55172
H     -0.65736     2.37123    -3.25918
H      0.50137     3.52214    -1.56464
H     -0.17443     4.98136    -2.30299
C      2.55853     1.76788    -3.09276
O      1.90737     1.01772    -2.07980
H      3.62322     1.80286    -2.86621
H      0.96709     0.93565    -2.31944
H      2.42679     1.30237    -4.07210
H      2.17316     2.78440    -3.13316
C      0.59743    -1.65105     3.76037
O      0.70755    -1.13730     2.44291
H      0.55466    -2.74080     3.74628
H      1.62322    -1.31008     2.08946
H      1.44644    -1.33996     4.36726
H     -0.31678    -1.26774     4.20889
C      1.84128    -2.15822    -1.81497
O      2.84179    -1.31282    -1.25688
H      1.51894    -1.77189    -2.78073
H      2.61555    -0.40297    -1.54961
H      2.26187    -3.15110    -1.96574
H      0.96953    -2.23315    -1.16144
C      3.48173    -2.96743     1.52974
O      2.99144    -1.64500     1.36559
H      4.31303    -3.15785     0.85342
H      2.99519    -1.46042     0.39436
H      3.83272    -3.08842     2.55246
H      2.69714    -3.70252     1.33312
C     -2.28605    -2.48743     1.52914
O     -1.23997    -1.95359     0.72013
H     -3.21588    -2.46746     0.96035
H     -0.55248    -1.61535     1.32111
H     -2.07703    -3.52758     1.79202
H     -2.42481    -1.89912     2.43440
C     -3.14830     1.35992     4.34642
O     -2.65681     0.36657     3.46791
H     -2.35164     1.77615     4.96999
H     -1.90864     0.74472     2.97768
H     -3.62295     2.18202     3.80156
H     -3.89300     0.90409     4.99915
C     -3.33678     0.34019    -0.36944
O     -2.35865    -0.38632    -1.10896
H     -3.08891     0.39028     0.68999
H     -1.92676    -1.01001    -0.48357
H     -3.40490     1.35133    -0.77181
H     -4.30926    -0.13764    -0.48732
C     -0.08895     1.77898     0.88832
O     -0.41286     1.26423     2.16913
H     -0.36624     2.83351     0.86500
H      0.12793     0.46458     2.30344
H      0.97768     1.70703     0.66930
H     -0.63548     1.26480     0.09815
C     -0.83032    -0.21154    -3.96201
O     -0.70878     0.61344    -2.81380
H     -0.96586    -1.25371    -3.67492
H     -1.38004     0.28650    -2.15524
H     -1.68150     0.10608    -4.56258
H      0.07694    -0.12610    -4.56025
