 60
-1158.0862068964313
C      4.02850    -1.60029    -0.22561
O      3.86645    -0.23729    -0.57247
H      3.06642    -2.10708    -0.15451
H      3.47237     0.22550     0.19594
H      4.62892    -2.08600    -0.99422
H      4.55593    -1.69636     0.72760
C      1.12132    -1.80303     2.07340
O      0.72913    -2.16353     0.75210
H      1.16176    -2.68539     2.71163
H      0.01906    -2.83235     0.84693
H      2.10744    -1.35270     2.04267
H      0.42193    -1.09188     2.51651
C      3.93730     0.60579    -3.89799
O      2.86066     0.23091    -3.06439
H      4.41528     1.52766    -3.55329
H      3.22886     0.03865    -2.18662
H      4.70207    -0.17523    -3.95095
H      3.55149     0.77521    -4.90220
C     -3.90218    -1.26659    -0.89314
O     -3.00882    -1.31123     0.21215
H     -3.88125    -0.29143    -1.37991
H     -2.16010    -0.91255    -0.09929
H     -3.64955    -2.03502    -1.62535
H     -4.90989    -1.45834    -0.52909
C      3.45431     2.25311     1.83965
O      2.70866     1.11421     1.43659
H      3.18713     3.13094     1.24929
H      1.83430     1.43956     1.12758
H      3.27848     2.46974     2.89507
H      4.51648     2.04698     1.70262
C     -1.77604    -3.96307     2.52100
O     -1.51373    -3.57856     1.17873
H     -2.54328    -4.73680     2.56057
H     -2.19967    -2.95384     0.89700
H     -0.85947    -4.36627     2.94857
H     -2.09718    -3.10633     3.11747
C     -2.41446     3.49783    -1.01379
O     -2.58789     2.08858    -1.05560
H     -3.30646     4.00897    -0.64335
H     -2.80942     1.77455    -0.16839
H     -1.56408     3.77709    -0.38970
H     -2.22611     3.83750    -2.03110
C      0.99248     2.55529    -0.97752
O      0.50548     2.10456     0.28513
H      1.27384     3.60180    -0.87353
H     -0.20215     1.46563     0.10722
H      1.86796     1.99127    -1.29219
H      0.23061     2.47863    -1.75216
C     -0.49216    -0.44012    -1.95821
O     -0.68836    -0.38331    -0.53979
H     -0.67274    -1.44765    -2.33399
H     -0.01481    -0.96036    -0.09814
H     -1.20711     0.24365    -2.41012
H      0.51469    -0.14042    -2.23309
C     -4.93382     1.26084     1.82951
O     -3.55190     1.04260     1.59779
H     -5.54942     0.66653     1.15008
H     -3.43562     0.10593     1.38546
H     -5.20331     1.01235     2.85805
H     -5.14870     2.31477     1.65594
