 36
-694.8566821770181
C      0.78839     2.42463     0.13809
O      0.18248     2.28409    -1.13645
H      0.73022     1.50552     0.72768
H      0.67201     1.58115    -1.61275
H      1.83597     2.71536     0.04788
H      0.26776     3.21965     0.67037
C      2.89491     0.24654    -2.17679
O      1.48296     0.18354    -2.22224
H      3.21936     1.20765    -2.57387
H      1.22061    -0.62105    -1.72679
H      3.26842     0.14405    -1.15469
H      3.34147    -0.53992    -2.78808
C      0.38599    -2.10655     2.82019
O      0.39379    -1.16899     1.76040
H      1.34372    -2.62407     2.84235
H     -0.43899    -0.64857     1.82525
H      0.24559    -1.60719     3.78005
H     -0.41215    -2.84098     2.68893
C     -2.35061     0.22268    -1.63768
O     -2.26266     1.23224    -0.63335
H     -1.72922    -0.64028    -1.39057
H     -1.46172     1.75706    -0.84210
H     -3.38721    -0.09765    -1.71668
H     -2.03037     0.61698    -2.60201
C      1.63575    -3.10736    -0.74631
O      0.85592    -1.92930    -0.73181
H      1.10906    -3.93096    -0.26173
H      0.70751    -1.68162     0.20706
H      1.82911    -3.38881    -1.78031
H      2.59230    -2.95837    -0.23873
C     -2.03710     1.29853     2.72714
O     -1.85714     0.23677     1.80755
H     -2.01903     0.89393     3.73789
H     -2.10196     0.58074     0.91761
H     -1.24038     2.03933     2.62796
H     -2.99427     1.79499     2.56593
