 42
-810.6699721665706
C     -0.68222     2.11979    -0.24561
O     -0.18585     2.03944    -1.57746
H     -1.77213     2.06816    -0.27060
H      0.70572     1.63216    -1.51130
H     -0.30076     1.30762     0.37534
H     -0.40286     3.07533     0.20159
C     -2.21439    -0.66439     2.15613
O     -1.09853    -1.21373     1.47474
H     -3.06630    -1.34463     2.12342
H     -1.38102    -1.36458     0.54552
H     -1.94738    -0.49395     3.19964
H     -2.51317     0.28877     1.71428
C      1.62658    -0.70425    -1.13066
O      2.06704     0.64963    -1.13734
H      1.32441    -1.01146    -0.12798
H      2.46592     0.80017    -0.25415
H      0.77002    -0.81533    -1.79058
H      2.42101    -1.36731    -1.47488
C     -1.46765     0.16102    -4.13819
O     -1.84510     0.36475    -2.78778
H     -1.57825     1.08112    -4.71337
H     -1.26092     1.07175    -2.42649
H     -0.42899    -0.17210    -4.20902
H     -2.11460    -0.60001    -4.57048
C     -1.75237    -2.82855    -1.64976
O     -1.94543    -1.58475    -1.00304
H     -1.70233    -3.61283    -0.89602
H     -1.97455    -0.87792    -1.68767
H     -2.58088    -3.05137    -2.32432
H     -0.82280    -2.83669    -2.22403
C      2.72312     2.09437     2.03555
O      2.84274     0.83775     1.39986
H      1.68023     2.42173     2.07983
H      2.29412     0.20103     1.90348
H      3.11723     2.05990     3.05181
H      3.29396     2.82778     1.46954
C      1.00404    -0.72270     4.08083
O      1.21909    -0.82643     2.68883
H      1.96452    -0.77597     4.59032
H      0.36023    -1.02743     2.26215
H      0.52238     0.22563     4.33780
H      0.38050    -1.54076     4.44420
