 36
-694.8515978746138
C      0.01225     2.49234    -0.82687
O      0.86253     1.96255     0.18950
H     -0.68862     3.18936    -0.37338
H      1.55520     1.43071    -0.26569
H      0.60121     3.02505    -1.57305
H     -0.55593     1.70433    -1.32347
C      3.80272     0.14745    -0.34485
O      2.63887     0.44783    -1.09819
H      3.54305    -0.29410     0.62101
H      2.21384    -0.40112    -1.34141
H      4.44622    -0.54808    -0.88492
H      4.35392     1.06999    -0.17454
C      0.81501    -2.49623    -2.62050
O      1.28655    -1.83782    -1.45967
H      0.43928    -3.49232    -2.37461
H      0.51637    -1.69180    -0.87266
H      0.01361    -1.93103    -3.10280
H      1.64105    -2.60108    -3.32096
C      0.20676     0.20392     2.97729
O     -0.60623     0.67681     1.91411
H     -0.44173    -0.18338     3.75820
H     -0.02619     1.24687     1.34463
H      0.87078    -0.59167     2.63294
H      0.81034     1.01339     3.38561
C     -1.57064    -2.49035     0.50255
O     -0.80033    -1.36637     0.10803
H     -1.65933    -2.55399     1.58860
H     -0.87212    -0.65746     0.77695
H     -2.57215    -2.44186     0.06958
H     -1.08602    -3.39650     0.13981
C     -3.47891     0.66002    -0.12157
O     -2.93251     1.77296     0.54874
H     -2.76246     0.20510    -0.81002
H     -2.27510     1.45169     1.17557
H     -3.82436    -0.10933     0.57563
H     -4.33845     1.00097    -0.69751
