 42
-810.6649338742899
C     -3.28599    -0.65320     0.82525
O     -1.92064    -0.56371     0.46507
H     -3.77322     0.29122     0.58557
H     -1.41474    -1.21602     1.00363
H     -3.78420    -1.45965     0.28045
H     -3.39716    -0.83600     1.89438
C      1.74782    -2.26407    -0.56263
O      1.89714    -2.07076     0.83649
H      1.10665    -1.50511    -1.01519
H      2.15337    -1.12889     0.95732
H      2.72017    -2.24531    -1.05817
H      1.29955    -3.24296    -0.73503
C     -1.01309    -3.70901     1.37086
O     -0.57891    -2.42578     1.79160
H     -1.93410    -3.95514     1.89451
H      0.37947    -2.35838     1.57982
H     -1.20768    -3.72802     0.29513
H     -0.26770    -4.46956     1.60211
C     -2.00844     0.61209    -2.67921
O     -0.93758     0.15993    -1.87218
H     -1.62200     0.86166    -3.66613
H     -1.32288    -0.15220    -1.02313
H     -2.76696    -0.16390    -2.79029
H     -2.48333     1.49875    -2.25233
C      2.22474     1.31842    -2.47579
O      1.28540     1.52406    -1.43458
H      3.13004     1.87296    -2.24136
H      0.45906     1.03576    -1.65841
H      2.47225     0.25900    -2.56856
H      1.82854     1.67092    -3.42901
C      1.29982     0.97457     2.00298
O      2.19950     0.56925     0.97345
H      1.40135     0.27971     2.83594
H      1.91892     1.00827     0.15283
H      1.54311     1.97653     2.35221
H      0.26328     0.96154     1.66036
C     -1.13746     3.27906     0.18710
O      0.24339     3.52956     0.34034
H     -1.50999     3.65932    -0.76925
H      0.70695     3.02878    -0.33895
H     -1.38483     2.21727     0.25627
H     -1.66830     3.80538     0.98050
