 36
-694.8529237526086
C      0.79201     0.00819    -2.91548
O      0.75800     1.24237    -2.21717
H      1.81980    -0.17274    -3.23204
H     -0.03691     1.26678    -1.67577
H      0.47642    -0.82614    -2.28292
H      0.15892     0.03935    -3.80591
C      1.38849     2.92237     0.74382
O      0.51675     1.91240     1.23541
H      0.83036     3.85386     0.66562
H      1.06108     1.10403     1.38647
H      2.21988     3.07958     1.43122
H      1.78176     2.65877    -0.23774
C      2.88707    -0.46990     0.35455
O      1.90622    -0.35038     1.37638
H      3.18274    -1.51072     0.22320
H      1.33744    -1.14752     1.31667
H      2.51222    -0.08589    -0.59515
H      3.76647     0.10153     0.64630
C     -2.95696    -1.87082    -0.61595
O     -1.61079    -1.43689    -0.65366
H     -3.42267    -1.62587     0.34149
H     -1.59871    -0.46758    -0.56100
H     -3.53975    -1.41044    -1.41666
H     -2.97251    -2.95049    -0.75376
C     -2.37094     2.38390    -0.43961
O     -1.50750     1.27623    -0.25410
H     -3.07621     2.14205    -1.23175
H     -0.80438     1.55090     0.39207
H     -2.92004     2.60039     0.47735
H     -1.80217     3.26899    -0.72885
C     -0.45855    -2.75757     2.20341
O      0.25571    -2.42860     1.02370
H      0.25205    -3.10421     2.95152
H     -0.40130    -2.15446     0.35411
H     -0.99176    -1.88848     2.59874
H     -1.17709    -3.55709     2.01768
