 24
-463.2206592447826
C      2.53713     0.73263     1.11397
O      1.19835     1.18789     1.26753
H      2.75319     0.06375     1.94418
H      0.95114     1.68736     0.47652
H      2.66137     0.18563     0.17694
H      3.24004     1.56730     1.13675
C     -1.19636     2.98793    -1.10661
O     -0.27624     1.90312    -1.08994
H     -0.64093     3.88395    -1.37480
H     -0.76207     1.09250    -0.89331
H     -1.98584     2.82713    -1.84353
H     -1.64876     3.13144    -0.12227
C     -2.08185    -0.55640     1.38564
O     -0.99241    -0.49358     0.46899
H     -2.98371    -0.75309     0.81139
H     -0.21438    -0.15598     0.94058
H     -1.93295    -1.36175     2.10566
H     -2.19407     0.39005     1.91788
C      1.07485    -2.81877    -1.18427
O     -0.27803    -2.99902    -0.81772
H      1.69516    -2.56668    -0.31830
H     -0.58397    -2.16233    -0.45740
H      1.43774    -3.75390    -1.60676
H      1.19151    -2.02933    -1.93350
