 42
-810.6689682859425
C     -2.50978    -0.49654     1.46350
O     -1.50230    -1.39042     1.91875
H     -2.08015     0.40612     1.02386
H     -0.89624    -0.87331     2.49573
H     -3.10422    -1.00981     0.70924
H     -3.16728    -0.21336     2.28531
C      1.50160    -0.78768     3.37945
O      0.39075     0.05579     3.13403
H      1.78100    -1.35436     2.48703
H      0.67909     0.73823     2.48774
H      2.36865    -0.21113     3.70436
H      1.23630    -1.48971     4.16753
C      1.78491    -1.55566    -2.71641
O      0.52094    -1.15234    -2.23391
H      1.83456    -2.64051    -2.82423
H      0.37116    -1.59543    -1.37180
H      1.94805    -1.10500    -3.69433
H      2.58810    -1.23867    -2.04629
C      0.46240    -3.66479     0.37117
O      0.15468    -2.31092     0.10409
H      1.21110    -4.00814    -0.34318
H     -0.51396    -2.01884     0.77092
H      0.86998    -3.77519     1.37810
H     -0.42439    -4.29354     0.28113
C     -1.92991     0.86058    -3.15078
O     -0.66097     1.16957    -2.59972
H     -2.56265     0.35089    -2.41873
H     -0.18248     0.31648    -2.49902
H     -2.41631     1.78569    -3.45675
H     -1.82531     0.21742    -4.02519
C      2.01055     1.10393     0.25047
O      1.18171     1.73941     1.21692
H      3.03918     1.11642     0.60622
H      0.42060     2.10239     0.71560
H      1.71325     0.06691     0.08828
H      1.96719     1.62868    -0.70235
C     -0.86592     3.94715    -0.61297
O     -0.80598     2.56219    -0.32759
H     -1.80338     4.20337    -1.11090
H     -0.76903     2.08903    -1.18627
H     -0.81126     4.50067     0.32322
H     -0.03550     4.25473    -1.25312
