 60
-1158.0954490881363
C      3.88049    -3.17568     0.73399
O      2.63705    -3.44646     1.35565
H      4.02984    -2.10246     0.59486
H      1.94456    -3.17308     0.74089
H      4.67281    -3.55648     1.37793
H      3.96136    -3.66577    -0.23988
C      1.30099     3.56707    -0.69167
O      0.78051     2.27886    -0.38337
H      0.58654     4.12192    -1.29973
H     -0.09133     2.38763     0.08067
H      1.49616     4.12573     0.22358
H      2.22608     3.45757    -1.24982
C      3.61090     1.43056    -3.09298
O      2.64266     2.33175    -3.59591
H      3.40192     1.14649    -2.06001
H      1.79993     1.86405    -3.62967
H      3.66854     0.51820    -3.69338
H      4.58476     1.91858    -3.12759
C     -1.09157     1.51305    -3.08221
O      0.20455     0.99872    -2.82133
H     -1.45718     1.05548    -4.00057
H      0.47087     1.32657    -1.94802
H     -1.79429     1.28180    -2.27858
H     -1.06594     2.59651    -3.22789
C      2.29342     0.12938     1.68193
O      2.20032     0.14065     0.26421
H      2.78147     1.03297     2.04900
H      1.74469     0.97128     0.01724
H      1.31027     0.06051     2.15144
H      2.88303    -0.72898     1.99335
C     -3.71698    -2.74040     1.32886
O     -3.13423    -1.45258     1.41994
H     -4.76263    -2.63257     1.04698
H     -2.22591    -1.56850     1.77164
H     -3.20572    -3.34642     0.57730
H     -3.66511    -3.25836     2.28786
C     -4.58430     0.93831    -0.63211
O     -3.25205     0.61354    -0.27806
H     -4.55442     1.69544    -1.41441
H     -3.26840    -0.17350     0.30536
H     -5.10986     0.06265    -1.01732
H     -5.13427     1.33305     0.22557
C     -0.02538    -2.43296     3.31032
O     -0.61154    -1.78942     2.18430
H     -0.38629    -3.45931     3.40121
H     -0.09139    -2.01053     1.38858
H      1.06094    -2.44511     3.23158
H     -0.31215    -1.87814     4.20202
C     -0.29796    -1.77540    -1.18580
O      0.71873    -2.02788    -0.21414
H     -1.02014    -2.58819    -1.13216
H      1.32007    -1.25040    -0.19370
H     -0.81419    -0.83443    -0.99937
H      0.13071    -1.74195    -2.18430
C     -1.64503     1.98366     2.15207
O     -1.55813     2.38895     0.78532
H     -1.29915     2.79706     2.78624
H     -2.20164     1.82514     0.30466
H     -2.67738     1.75547     2.40845
H     -1.03717     1.09665     2.33996
