 30
-579.0383672719303
C      3.23838    -0.08040    -0.77870
O      2.94482     0.82034     0.26857
H      4.20467    -0.53949    -0.57169
H      2.10189     1.23942     0.05240
H      2.48845    -0.87266    -0.85596
H      3.30155     0.42761    -1.74528
C     -2.76628    -1.72130     0.71268
O     -1.39959    -1.72706     0.33614
H     -2.90911    -2.23576     1.66293
H     -0.89759    -1.28526     1.05508
H     -3.14585    -0.70010     0.80567
H     -3.33808    -2.24147    -0.05364
C      1.22060    -0.81170     2.43826
O     -0.00139    -0.19471     2.02765
H      1.72344    -1.28647     1.59698
H      0.20833     0.58561     1.49621
H      1.89849    -0.08165     2.87846
H      0.97053    -1.56443     3.18235
C     -0.59967     2.76250    -0.25068
O      0.32058     1.68552    -0.27064
H     -0.78861     3.13394    -1.25891
H     -0.03108     1.00740    -0.89376
H     -1.54943     2.44771     0.18918
H     -0.17971     3.56626     0.34710
C     -1.77147    -0.09918    -2.68561
O     -0.72334    -0.22464    -1.74285
H     -1.42442     0.51843    -3.51084
H     -0.99670    -0.88583    -1.06478
H     -2.05681    -1.07542    -3.08076
H     -2.65365     0.36773    -2.24067
