 36
-694.8453995171801
C      0.11177     1.67793    -3.28495
O      0.21187     0.59744    -2.38589
H      0.51446     2.59965    -2.85289
H     -0.35120     0.80016    -1.62186
H      0.68613     1.44153    -4.18005
H     -0.92366     1.86874    -3.58288
C      1.70736     2.57191     0.59235
O      0.84575     1.73846     1.34923
H      1.31823     3.58843     0.62281
H      1.31435     0.88314     1.47859
H      2.71418     2.58052     1.01144
H      1.76849     2.25009    -0.44927
C      2.48620    -1.06195     0.14030
O      1.97127    -0.68406     1.40997
H      3.44697    -0.56977    -0.00258
H      1.23738    -1.30502     1.61605
H      2.64908    -2.13893     0.09402
H      1.81094    -0.76985    -0.66852
C     -1.50559    -2.07099    -1.46569
O     -1.33114    -3.08981    -0.47084
H     -1.85193    -1.16953    -0.96717
H     -1.00465    -3.88360    -0.89454
H     -0.56549    -1.84691    -1.96593
H     -2.25255    -2.37816    -2.19734
C     -2.04272     2.55221    -0.24985
O     -1.31731     1.34040    -0.18257
H     -2.59104     2.58251    -1.19119
H     -0.60953     1.46428     0.48644
H     -2.75944     2.62452     0.57032
H     -1.37843     3.41732    -0.20790
C     -1.18225    -1.38016     2.45946
O     -0.19569    -2.16216     1.79472
H     -0.72148    -0.88965     3.31510
H     -0.61361    -2.52749     0.99318
H     -1.58553    -0.61639     1.79244
H     -1.99619    -2.01146     2.81669
