 54
-1042.2866269314807
C      0.34756     0.64457     4.37197
O      1.71878     0.44902     4.09846
H      0.01534     1.65864     4.13730
H      1.89931     0.79498     3.21873
H     -0.27783    -0.05786     3.81647
H      0.18889     0.47132     5.43585
C      2.52816    -0.98075    -2.75967
O      1.16894    -0.71870    -3.05785
H      3.14107    -0.25611    -3.29345
H      0.63136    -1.37530    -2.58033
H      2.72544    -0.88927    -1.69029
H      2.81293    -1.98247    -3.08745
C     -2.72354    -0.19810    -1.69038
O     -2.42588    -1.26542    -0.78768
H     -3.59922     0.35548    -1.35068
H     -2.33728    -0.87002     0.10880
H     -1.88382     0.49269    -1.78687
H     -2.94361    -0.62808    -2.66522
C      0.54012     2.53271    -4.04011
O      0.19330     1.81749    -2.87213
H      0.05113     3.50587    -4.00685
H      0.53238     0.91441    -2.97424
H      1.62081     2.69368    -4.10799
H      0.21405     2.01340    -4.94509
C     -0.29281    -3.84238    -1.36234
O     -0.22077    -2.43336    -1.48466
H      0.71105    -4.25179    -1.45228
H     -1.11519    -2.06271    -1.24507
H     -0.70459    -4.12027    -0.39303
H     -0.92204    -4.26172    -2.14537
C     -3.22770     0.08503     2.44285
O     -2.12576    -0.05626     1.56890
H     -3.96574     0.77925     2.03357
H     -1.63397     0.79680     1.55384
H     -3.69411    -0.88882     2.57830
H     -2.90829     0.45374     3.41807
C     -0.97394     3.04392     0.38487
O     -0.74238     2.20373     1.50801
H     -2.05017     3.18621     0.28516
H      0.19649     1.92801     1.49187
H     -0.51691     4.02193     0.54149
H     -0.59048     2.61197    -0.54037
C      0.65939    -2.13303     1.78164
O      1.24669    -1.43705     0.68325
H     -0.40144    -1.90322     1.86966
H      0.81941    -1.74297    -0.13421
H      0.78328    -3.21107     1.67096
H      1.16938    -1.83661     2.69523
C      2.44850     1.62947     0.15508
O      1.70248     1.09924     1.24272
H      1.89274     1.56440    -0.78027
H      1.53587     0.14816     1.03802
H      2.67065     2.67429     0.36217
H      3.39308     1.09727     0.04442
