 60
-1158.0999015598256
C      0.47554     0.04874     2.31155
O     -0.86309     0.29948     1.92234
H      0.58378    -0.97543     2.67242
H     -1.08442    -0.35432     1.21171
H      1.15424     0.20163     1.47150
H      0.74025     0.73438     3.11387
C      1.12970     2.38845    -0.13919
O      0.88188     1.27950    -0.99641
H      0.97382     3.33459    -0.65942
H     -0.06664     1.29316    -1.24004
H      0.47644     2.35849     0.73194
H      2.16396     2.35193     0.20366
C      3.79209     0.31928    -2.47617
O      3.05483    -0.21092    -1.38513
H      4.13982     1.32879    -2.25472
H      2.23880     0.32820    -1.26929
H      4.65417    -0.32082    -2.65534
H      3.17754     0.34318    -3.37879
C     -0.43631    -0.94824    -3.17625
O     -0.37665    -1.92387    -2.14395
H      0.45841    -0.32604    -3.17730
H      0.53524    -2.29455    -2.12146
H     -0.51700    -1.43278    -4.14973
H     -1.30345    -0.30842    -3.03120
C     -2.97623    -1.29055    -0.20633
O     -1.60252    -1.44902     0.13401
H     -3.33394    -2.14014    -0.78902
H     -1.11200    -1.64545    -0.69901
H     -3.56868    -1.23482     0.70513
H     -3.13204    -0.38289    -0.79025
C      4.23932    -0.35652     2.35271
O      3.94004     0.58990     1.34575
H      3.34538    -0.90722     2.66118
H      3.77436     0.12855     0.51678
H      4.99740    -1.07944     2.03521
H      4.61913     0.18396     3.21800
C     -3.74525     2.24015     1.44445
O     -2.41811     2.36867     0.95378
H     -3.78407     2.41696     2.51903
H     -1.85068     1.73534     1.42891
H     -4.36421     2.98158     0.94259
H     -4.14796     1.24582     1.24869
C     -1.82554     2.80967    -2.49725
O     -1.74112     1.75448    -1.56041
H     -1.27730     2.52816    -3.39681
H     -2.10622     2.05528    -0.69823
H     -2.86065     3.00914    -2.77929
H     -1.38991     3.72809    -2.09984
C     -3.16969    -1.78425     3.47639
O     -3.25638    -0.37283     3.40590
H     -2.49951    -2.19253     2.71529
H     -2.39373    -0.04223     3.13226
H     -2.81843    -2.10883     4.45860
H     -4.16558    -2.19704     3.31365
C      2.22365    -3.35469    -0.58525
O      2.14874    -2.68974    -1.84159
H      3.07602    -2.99700    -0.00483
H      2.59169    -1.82807    -1.72140
H      1.31535    -3.17641    -0.00516
H      2.33655    -4.42282    -0.75417
