 36
-694.8441431321116
C      0.06839    -0.62520    -2.76726
O      0.67749     0.45776    -2.08137
H      0.16087    -1.54992    -2.19396
H      0.03643     0.84858    -1.47729
H     -0.98820    -0.44135    -2.96618
H      0.58388    -0.75449    -3.71900
C      1.60195     2.07160     3.05514
O      1.18569     1.85062     1.71794
H      1.09417     2.95680     3.43129
H      1.70982     1.10008     1.36099
H      1.34320     1.21868     3.68759
H      2.68121     2.23112     3.10752
C      3.40663    -0.00282    -0.26304
O      2.37720    -0.30743     0.68175
H      4.14206     0.62459     0.23860
H      1.69161    -0.83387     0.24708
H      3.89925    -0.91592    -0.59870
H      2.99441     0.52709    -1.11893
C     -3.06383    -2.62717    -2.06909
O     -2.86047    -1.51604    -1.21728
H     -3.93918    -2.42507    -2.68587
H     -2.06082    -1.66554    -0.69905
H     -2.20960    -2.79026    -2.73399
H     -3.24097    -3.54702    -1.50327
C     -2.27953     1.87145     0.40896
O     -0.96634     1.35507     0.24095
H     -2.96933     1.19128    -0.08720
H     -0.32205     1.77083     0.85108
H     -2.53772     1.93815     1.46744
H     -2.36449     2.85989    -0.04431
C     -0.45324    -1.64051     1.83653
O     -0.43382    -1.29549     0.45592
H     -0.20171    -2.69588     1.92399
H     -0.67320    -0.35236     0.40111
H      0.27824    -1.05792     2.40066
H     -1.44315    -1.47541     2.26916
