 42
-810.6598216791668
C     -1.57179    -0.89985    -2.57877
O     -1.24510    -0.76454    -1.19946
H     -2.07930    -1.85144    -2.71448
H     -0.93090     0.15452    -1.04236
H     -2.23281    -0.09255    -2.89688
H     -0.66792    -0.87854    -3.18742
C     -1.24934    -2.47227     1.82986
O     -2.11410    -1.45659     1.34576
H     -0.20020    -2.18766     1.73237
H     -1.94427    -1.34015     0.39767
H     -1.47219    -2.62901     2.88367
H     -1.41343    -3.40984     1.29558
C      2.27244    -2.09914    -1.36585
O      1.39996    -1.67996    -0.31954
H      3.29385    -1.86247    -1.06726
H      0.49235    -1.62632    -0.65724
H      2.20331    -3.17774    -1.51582
H      2.04216    -1.57998    -2.29514
C      1.76215     0.71214     2.16400
O      1.88573     0.74500     0.74803
H      1.87537     1.72611     2.54255
H      1.85725    -0.17728     0.41942
H      0.78686     0.33320     2.46878
H      2.54010     0.08950     2.60808
C     -2.49724     1.03783     3.72240
O     -1.71637     0.97577     2.54618
H     -2.08422     0.40330     4.51364
H     -1.88260     0.11763     2.11873
H     -2.50488     2.06763     4.07868
H     -3.53036     0.73045     3.54023
C      2.67901     1.11996    -2.82573
O      1.33876     0.73583    -3.09677
H      2.99934     0.78800    -1.83564
H      0.77387     1.17138    -2.44672
H      3.32067     0.65236    -3.57234
H      2.80644     2.20326    -2.88931
C     -0.95990     2.66842    -0.22533
O     -0.14834     1.60722    -0.73030
H     -0.55536     3.63024    -0.53999
H      0.61764     1.45976    -0.12331
H     -1.96064     2.55502    -0.63889
H     -1.02272     2.61842     0.85847
