 36
-694.8465093092908
C      1.10134     1.14472     2.93264
O      0.66931     0.59532     1.70052
H      0.26074     1.14650     3.62202
H      1.41278     0.69086     1.04431
H      1.91386     0.55011     3.35362
H      1.44856     2.17035     2.79552
C      2.42978     1.93137    -1.00193
O      2.38503     0.73355    -0.23375
H      1.45826     2.15736    -1.43707
H      2.08577     0.00678    -0.82758
H      2.71794     2.74933    -0.34389
H      3.17370     1.84837    -1.79463
C      0.33267    -0.75959    -2.58836
O      1.23366    -1.25085    -1.59036
H     -0.32992    -1.54943    -2.93414
H      0.72378    -1.74392    -0.93470
H     -0.26882     0.06555    -2.20762
H      0.93484    -0.41438    -3.42592
C      0.38210    -2.84316     1.78578
O     -0.19871    -1.83855     0.97081
H      0.10565    -3.81050     1.37683
H      0.04402    -0.96181     1.32486
H      1.47054    -2.75423     1.79112
H      0.01332    -2.77240     2.81000
C     -3.09528    -0.68376    -0.68066
O     -2.23855    -1.78186    -0.91277
H     -2.69112     0.22929    -1.11980
H     -1.59386    -1.81142    -0.19563
H     -4.06203    -0.88979    -1.14103
H     -3.25880    -0.51158     0.38876
C     -2.01422     2.90472    -0.02622
O     -0.88447     2.11665    -0.35856
H     -1.77212     3.67441     0.71246
H     -0.53868     1.70300     0.44186
H     -2.36125     3.39678    -0.93470
H     -2.83454     2.29508     0.36597
