 24
-463.2273201656555
C      0.54247     2.03174     1.97207
O      1.15045     0.87422     1.43417
H     -0.41391     2.24288     1.48672
H      1.26716     1.01711     0.47049
H      0.36855     1.86651     3.03314
H      1.19106     2.90240     1.85877
C      0.30036     1.88798    -1.89292
O      1.11428     0.92926    -1.24733
H     -0.73915     1.81864    -1.56138
H      0.74313     0.04550    -1.45776
H      0.67861     2.88042    -1.65489
H      0.32809     1.75950    -2.97615
C     -1.42219    -1.27195     1.89177
O     -0.17446    -1.43915     1.24872
H     -2.04988    -2.13000     1.65861
H      0.36875    -0.64985     1.46085
H     -1.30063    -1.21812     2.97471
H     -1.92799    -0.36344     1.55383
C     -1.41279    -1.56516    -1.97285
O     -0.11266    -1.43734    -1.43235
H     -1.78138    -2.58716    -1.86670
H     -0.16902    -1.61429    -0.46891
H     -2.11737    -0.88724    -1.48419
H     -1.36902    -1.32183    -3.03225
