 36
-694.8408476753835
C     -0.09118     2.63659    -1.58295
O     -0.26761     1.41225    -2.28182
H     -0.06021     2.48801    -0.50494
H     -1.03284     0.94963    -1.88108
H      0.84836     3.08163    -1.91100
H     -0.89487     3.33321    -1.82786
C     -0.14378    -2.96846    -0.81274
O      0.09265    -1.76417    -0.10666
H      0.57065    -3.74006    -0.51464
H      0.76688    -1.27064    -0.61923
H     -1.15030    -3.32933    -0.59014
H     -0.05868    -2.81497    -1.89073
C      1.98743     1.34085     1.14433
O      0.68994     1.60278     1.65507
H      2.03560     0.36875     0.65301
H      0.52312     0.98056     2.37306
H      2.22435     2.10455     0.40390
H      2.74668     1.38080     1.92921
C      2.04344    -0.99440    -3.04448
O      1.63126    -0.38525    -1.83429
H      2.76054    -0.36323    -3.57197
H      1.02002     0.35307    -2.06712
H      2.52374    -1.94436    -2.81232
H      1.19258    -1.18336    -3.70293
C     -2.58240     0.67288     0.27287
O     -2.02363    -0.03540    -0.82495
H     -3.18525     0.01286     0.90087
H     -1.40284    -0.69788    -0.47509
H     -1.80516     1.13460     0.88343
H     -3.23601     1.44963    -0.12123
C     -1.00222    -1.21270     3.53434
O     -0.02108    -0.20472     3.77438
H     -0.97631    -1.97244     4.31549
H     -0.23530     0.24507     4.59095
H     -2.00434    -0.78323     3.47693
H     -0.76194    -1.67369     2.57991
