 48
-926.4762482949728
C     -0.64627    -1.88449     3.08160
O     -0.33128    -1.09903     1.94130
H     -0.81913    -1.25402     3.95341
H     -1.04769    -0.41684     1.84013
H     -1.53968    -2.48098     2.89378
H      0.18854    -2.55374     3.28485
C      0.34628     2.94074    -2.63850
O     -0.02891     1.85497    -1.80813
H      0.29980     2.64489    -3.68705
H      0.81267     1.42922    -1.50555
H     -0.33737     3.77280    -2.47343
H      1.35858     3.26083    -2.39798
C     -0.12056    -3.92561    -0.55678
O      0.73393    -2.83470    -0.26581
H      0.43901    -4.64515    -1.15266
H      0.26287    -2.20847     0.29816
H     -0.46711    -4.42794     0.35054
H     -0.99473    -3.60620    -1.12596
C     -1.26928    -1.17012    -2.76703
O     -1.85501    -0.32568    -1.79720
H     -1.06812    -0.64283    -3.70593
H     -1.36032     0.50259    -1.79313
H     -0.33401    -1.60640    -2.40654
H     -1.96924    -1.97730    -2.98518
C     -3.41970     0.20344     1.11097
O     -2.23003     0.67874     1.73709
H     -3.97673     1.02800     0.66705
H     -1.96667     1.51257     1.28990
H     -3.17676    -0.51418     0.32821
H     -4.04140    -0.27532     1.86572
C      2.79111    -0.16939    -1.80463
O      2.23986     0.84738    -0.97713
H      2.59672     0.08973    -2.84525
H      2.23652     0.50411    -0.05394
H      3.87123    -0.22803    -1.66597
H      2.34495    -1.14118    -1.59147
C     -0.01465     3.10178     1.18350
O     -1.19723     2.80501     0.44761
H      0.76696     2.36394     0.99574
H     -0.89728     2.48851    -0.42331
H      0.36161     4.09258     0.92247
H     -0.25362     3.09481     2.24639
C      3.00912    -1.21275     1.74662
O      2.10477    -0.15166     1.48212
H      2.91371    -1.56095     2.77627
H      1.20748    -0.48127     1.69446
H      2.83845    -2.05325     1.07288
H      4.02632    -0.84799     1.60812
