 54
-1042.2838704767355
C     -2.54720     0.05881     0.22389
O     -2.46601    -1.29275    -0.20825
H     -2.51403     0.75456    -0.61169
H     -1.51551    -1.47923    -0.32507
H     -3.48480     0.19514     0.75876
H     -1.72897     0.30356     0.90229
C     -4.46068     1.79027    -3.04899
O     -3.23896     1.18651    -3.43322
H     -4.49504     2.79604    -3.46309
H     -3.31948     0.22408    -3.25750
H     -5.31543     1.22746    -3.42952
H     -4.54406     1.85248    -1.96001
C     -2.40552    -2.16455    -3.37244
O     -3.41703    -1.39320    -2.73621
H     -2.24801    -1.77652    -4.37840
H     -3.22932    -1.42417    -1.77520
H     -1.46540    -2.10252    -2.82082
H     -2.71102    -3.20827    -3.44711
C      3.88155    -0.59766     4.63185
O      3.12063     0.40404     3.97886
H      4.92067    -0.27326     4.65479
H      2.23002     0.05591     3.80278
H      3.53810    -0.74231     5.65725
H      3.81658    -1.54779     4.09548
C      1.02770    -2.47629    -0.01659
O      0.18887    -1.46099    -0.54168
H      0.59953    -3.44332    -0.27595
H      0.59734    -0.59661    -0.35212
H      2.03050    -2.42229    -0.44573
H      1.10293    -2.40643     1.06885
C     -0.47547    -1.18522     3.07555
O      0.72579    -0.45198     2.89191
H     -0.23922    -2.12614     3.57024
H      0.72276    -0.05398     2.00741
H     -1.16859    -0.62472     3.70459
H     -0.95680    -1.40466     2.12250
C      0.08723     1.42896    -2.95655
O     -0.96193     2.14598    -2.34032
H      0.02569     0.36255    -2.72435
H     -1.78468     1.87594    -2.78472
H      0.07483     1.54528    -4.04234
H      1.04301     1.80203    -2.58712
C      4.78992     0.33969     1.05692
O      3.69977     1.15754     1.46357
H      4.51156    -0.21363     0.15859
H      3.57670     1.02374     2.42653
H      5.65368     0.96189     0.82509
H      5.05668    -0.37128     1.83954
C      0.73998     2.11474     0.48166
O      1.30712     0.79840     0.46520
H      1.47218     2.83063     0.11458
H      2.25944     0.90474     0.72246
H     -0.13043     2.13103    -0.16537
H      0.46262     2.39857     1.49880
