 48
-926.4732208141402
C      0.25918    -1.85840     4.18209
O      0.20824    -1.68829     2.77758
H      0.42228    -0.90098     4.68173
H     -0.64515    -1.24686     2.56707
H     -0.66769    -2.29421     4.55607
H      1.07925    -2.53062     4.42707
C     -3.59316     2.06452    -1.98964
O     -2.19160     2.27527    -2.07295
H     -4.00093     2.07752    -2.99923
H     -1.80049     2.06120    -1.20602
H     -3.82616     1.09918    -1.53191
H     -4.07604     2.85524    -1.41327
C     -2.97625    -1.30441     1.46063
O     -2.03684    -0.45799     2.12181
H     -3.05998    -2.22398     2.03666
H     -1.87741     0.31928     1.56548
H     -3.95668    -0.82924     1.42475
H     -2.64467    -1.54290     0.45185
C      0.36075    -2.16105    -0.99693
O     -0.64099    -1.14936    -1.04243
H      1.26061    -1.84461    -1.52271
H     -0.75229    -0.84270    -1.97155
H      0.60576    -2.35842     0.04330
H     -0.01118    -3.08378    -1.44555
C      0.27934     0.64998    -3.84988
O     -0.96264     0.18334    -3.32731
H      1.07311     0.56297    -3.10516
H     -1.47046     0.96440    -3.03224
H      0.53601     0.04807    -4.71883
H      0.20143     1.69115    -4.16454
C      3.85081     1.20864    -0.82762
O      2.83978     0.24634    -1.02140
H      4.11242     1.64332    -1.79253
H      2.66345    -0.17605    -0.16550
H      3.52012     2.01849    -0.16784
H      4.75502     0.77037    -0.39645
C      0.31521     1.91341     0.21592
O     -0.89854     1.17793     0.09646
H      0.97300     1.45132     0.94851
H     -0.68981     0.27975    -0.26680
H      0.84237     1.98158    -0.73481
H      0.06396     2.91792     0.55001
C      3.40273    -1.03732     2.44506
O      2.37192    -0.83425     1.49799
H      3.04099    -0.87270     3.46119
H      1.53881    -1.15255     1.90709
H      3.79531    -2.05508     2.37936
H      4.21611    -0.33736     2.25248
