 54
-1042.2813906707208
C      3.99947     0.85569    -1.80011
O      3.32564    -0.31451    -2.21711
H      3.54953     1.27940    -0.89650
H      2.44597    -0.07283    -2.53829
H      5.03155     0.59001    -1.57386
H      4.00054     1.62724    -2.57477
C      1.41507    -3.17773    -2.22517
O      0.33729    -2.41945    -1.68260
H      2.37301    -2.75675    -1.92555
H      0.55386    -2.24987    -0.72889
H      1.34990    -4.21477    -1.89600
H      1.34539    -3.15007    -3.31114
C     -0.44000     0.28871    -3.87412
O      0.55830     0.04080    -2.90192
H     -0.24426     1.26090    -4.32351
H      0.37478    -0.83043    -2.50742
H     -0.41506    -0.46388    -4.66730
H     -1.43625     0.29745    -3.43052
C      1.72490    -0.63673     0.83969
O      0.77953    -1.70861     0.77385
H      2.02466    -0.45884     1.87125
H     -0.03688    -1.40502     1.22618
H      2.60785    -0.90456     0.26421
H      1.31430     0.28724     0.43218
C     -3.10988    -1.94697    -2.67893
O     -2.36120    -1.51553    -1.55397
H     -2.46664    -2.16912    -3.53528
H     -1.49509    -1.94970    -1.57142
H     -3.70070    -2.83763    -2.44792
H     -3.79526    -1.14895    -2.97005
C     -2.55919    -1.41488     1.79679
O     -1.37216    -0.63779     1.94118
H     -3.04903    -1.18850     0.85240
H     -1.52870     0.24894     1.54079
H     -2.27970    -2.46672     1.80739
H     -3.23595    -1.22274     2.63053
C     -1.46816     1.73265    -0.56675
O     -1.42031     1.81497     0.85724
H     -2.19838     0.97828    -0.85268
H     -0.59859     2.26888     1.12949
H     -1.77994     2.68863    -0.99023
H     -0.50428     1.45442    -0.99225
C     -0.92669     1.33627     4.51644
O      0.21830     0.82063     3.84043
H     -1.67608     1.68979     3.80634
H     -0.08691     0.04856     3.34091
H     -1.37950     0.57498     5.15295
H     -0.60651     2.16761     5.14121
C      1.02506     4.03966     2.51047
O      0.89853     2.73194     1.97679
H      1.63772     4.03806     3.41431
H      0.83125     2.10556     2.71978
H      1.50624     4.67136     1.76622
H      0.04579     4.46322     2.75140
