 54
-1042.2835151477539
C     -2.18958    -0.68785     0.28662
O     -1.61362    -1.71656    -0.50194
H     -2.52436     0.14975    -0.32061
H     -0.71378    -1.42768    -0.74861
H     -3.04603    -1.10327     0.81244
H     -1.49090    -0.30592     1.03150
C     -5.01916     1.09369    -2.19574
O     -3.73163     1.11039    -2.78471
H     -5.47773     2.07081    -2.33230
H     -3.45368     0.17561    -2.89060
H     -5.65714     0.34202    -2.66508
H     -4.95706     0.87658    -1.12542
C     -1.86519    -1.56976    -3.81328
O     -2.92957    -1.44745    -2.87598
H     -2.05515    -0.88543    -4.63957
H     -2.56968    -1.69303    -2.00086
H     -0.90702    -1.31373    -3.35740
H     -1.81967    -2.58465    -4.20849
C      4.49816    -1.81994     2.50701
O      3.55295    -1.01460     3.19605
H      4.45858    -2.85007     2.86222
H      2.66573    -1.35723     2.99066
H      4.31645    -1.81140     1.42897
H      5.49214    -1.42045     2.69961
C      1.98917    -1.39824    -1.14256
O      0.79610    -0.63168    -1.16162
H      1.98247    -2.07679    -1.99454
H      0.90540     0.11221    -0.53510
H      2.86966    -0.75765    -1.22707
H      2.06358    -1.98478    -0.22483
C     -0.10210    -2.26048     2.72336
O      1.05288    -1.61807     2.19804
H      0.23032    -3.11462     3.30922
H      0.81447    -0.78847     1.75751
H     -0.67019    -1.59101     3.37536
H     -0.74950    -2.61487     1.92042
C     -0.61554     2.36838    -2.38895
O     -1.74248     2.47842    -1.54123
H     -0.33196     1.32554    -2.54567
H     -2.49240     2.07707    -2.01290
H     -0.79802     2.82744    -3.36355
H      0.22711     2.88341    -1.92601
C      3.28068     2.45873     3.16215
O      3.31633     1.45748     2.15146
H      2.48791     3.16994     2.92884
H      3.54938     0.60643     2.58167
H      3.07655     2.02047     4.13907
H      4.22708     2.99875     3.19639
C      0.21895     2.19388     1.10134
O      1.05716     1.05161     0.91334
H      0.74934     3.10395     0.82002
H      1.93903     1.25352     1.31968
H     -0.66445     2.10297     0.47937
H     -0.08145     2.27832     2.14732
