 30
-579.0373237388075
C      3.53681     0.98665     0.79827
O      2.60697     0.69167    -0.23186
H      3.97292     1.96256     0.59230
H      2.11382    -0.11173     0.01497
H      3.04469     1.01263     1.77324
H      4.33645     0.24444     0.82368
C     -2.63090    -1.15445     1.70882
O     -2.76854    -1.61386     0.37957
H     -3.10819    -0.18087     1.85167
H     -2.39809    -0.92199    -0.18437
H     -3.11439    -1.87187     2.36981
H     -1.58050    -1.06653     1.99998
C     -1.27862    -0.21702    -2.45962
O     -1.31134     0.16814    -1.09093
H     -1.59873     0.60865    -3.09405
H     -0.77809     0.99356    -0.99461
H     -0.27276    -0.52530    -2.75400
H     -1.96321    -1.05289    -2.58618
C      0.13309     2.82248     0.51782
O      0.39614     2.14383    -0.70471
H      0.92740     3.53389     0.74520
H      1.27601     1.71792    -0.61606
H     -0.79913     3.37383     0.41310
H      0.04046     2.12117     1.35051
C      0.59391    -2.61722     0.51616
O      0.72322    -1.20613     0.36196
H     -0.44538    -2.89355     0.69116
H     -0.06072    -0.87684    -0.10353
H      0.95969    -3.13534    -0.37414
H      1.19567    -2.92227     1.37110
