 36
-694.8475973458158
C     -0.31045     2.81276    -2.13264
O      0.69825     3.46943    -1.39504
H     -1.21056     3.42790    -2.21167
H      0.50634     3.33812    -0.45851
H      0.06858     2.63405    -3.13858
H     -0.58697     1.85022    -1.69675
C      1.53194    -2.62064     2.18636
O      0.62795    -1.52381     2.09464
H      2.49005    -2.30654     2.60247
H      1.05255    -0.83554     1.55954
H      1.09205    -3.36386     2.84839
H      1.70471    -3.07533     1.20702
C      2.57393     0.64528    -0.92773
O      1.53116     0.12750    -0.10428
H      3.12467    -0.16997    -1.39774
H      0.83605    -0.23838    -0.69546
H      2.16947     1.30390    -1.69432
H      3.25870     1.20787    -0.29791
C     -0.02321    -1.91902    -2.46100
O     -0.47068    -0.96118    -1.51456
H      0.68796    -2.61898    -2.01230
H     -0.97990    -1.44389    -0.82344
H     -0.86181    -2.48506    -2.86644
H      0.46975    -1.39503    -3.27769
C     -2.81011    -1.90354     1.12006
O     -1.53519    -2.18934     0.56667
H     -2.75503    -1.07001     1.82281
H     -0.84993    -2.03504     1.24662
H     -3.48750    -1.63596     0.30997
H     -3.21095    -2.77618     1.63727
C     -0.97938     1.51866     1.40605
O      0.23774     2.19480     1.14191
H     -1.28737     0.89322     0.56488
H      0.83557     1.53213     0.76324
H     -0.89518     0.88676     2.29205
H     -1.75272     2.26473     1.58343
