 30
-579.037017433392
C      1.70519     1.88953    -0.89117
O      1.12844     0.65917    -0.45948
H      2.22632     2.37793    -0.06422
H      0.23095     0.83323    -0.13459
H      2.42574     1.66864    -1.67775
H      0.94183     2.56206    -1.28128
C     -1.75336     1.81919    -2.35133
O     -1.73474     2.57900    -1.15930
H     -1.79539     2.51094    -3.19095
H     -1.84646     1.96076    -0.42838
H     -0.85470     1.20420    -2.45205
H     -2.62695     1.16358    -2.39993
C      2.80594    -2.32711     0.61657
O      1.79321    -1.46778     1.11318
H      3.79849    -1.94384     0.86113
H      1.75455    -0.66935     0.55298
H      2.68389    -3.30189     1.08665
H      2.72809    -2.44303    -0.46716
C     -1.01141     0.95629     2.19664
O     -1.39318     0.59994     0.86829
H      0.01850     0.65637     2.39829
H     -1.37252    -0.38243     0.82308
H     -1.09587     2.03623     2.29280
H     -1.66575     0.47504     2.92189
C     -0.91749    -2.53430    -0.52280
O     -0.84808    -2.01436     0.79907
H     -0.53134    -3.55395    -0.55835
H      0.10043    -1.97037     1.03676
H     -1.96094    -2.54513    -0.83148
H     -0.34653    -1.92078    -1.22324
