 48
-926.4796347062186
C      0.09560    -3.87802     1.55469
O      0.18890    -2.57304     1.01829
H      0.38091    -4.63179     0.81930
H     -0.15918    -2.60091     0.09825
H      0.76605    -3.95793     2.41006
H     -0.92224    -4.08590     1.89243
C     -2.03519     2.89918    -1.69126
O     -1.18294     1.85684    -1.25144
H     -2.08758     2.87737    -2.77796
H     -1.24207     1.81614    -0.25896
H     -3.03869     2.77293    -1.28492
H     -1.63968     3.86438    -1.37277
C     -2.21652    -3.03860    -1.37623
O     -0.85745    -2.63714    -1.39430
H     -2.70749    -2.77394    -2.31171
H     -0.83440    -1.80059    -1.91571
H     -2.26969    -4.11829    -1.24504
H     -2.75371    -2.55156    -0.55723
C      0.00972    -0.16932    -3.74036
O     -0.95179    -0.38180    -2.71452
H      0.12981    -1.10261    -4.28858
H     -1.04036     0.44062    -2.19737
H     -0.33132     0.60028    -4.43558
H      0.97275     0.12880    -3.32678
C      2.17496     2.77715    -0.69642
O      1.62133     2.00526    -1.74794
H      1.87406     2.40840     0.28632
H      0.66406     2.02318    -1.64021
H      3.26041     2.72006    -0.76912
H      1.88609     3.82915    -0.77844
C      0.99806     1.37309     3.98530
O      1.01801     1.37652     2.56974
H      0.39660     2.21364     4.32989
H      1.46945     0.55016     2.27868
H      0.56616     0.44775     4.37252
H      2.00678     1.48283     4.38610
C     -2.02799     0.53551     1.82654
O     -1.31402     1.66774     1.33800
H     -1.41261    -0.36522     1.79574
H     -0.43938     1.65234     1.78920
H     -2.36122     0.71045     2.84909
H     -2.90967     0.38659     1.20325
C      2.92974    -0.71144     0.56919
O      2.09264    -0.88802     1.70351
H      3.21732    -1.67354     0.14388
H      1.41009    -1.55037     1.45138
H      2.43731    -0.11860    -0.20429
H      3.83420    -0.19644     0.88819
