 60
-1158.0885758665572
C      1.63660    -0.92816    -6.49061
O      2.35335    -1.51986    -5.43353
H      0.72333    -1.48529    -6.72474
H      1.75759    -1.58268    -4.67891
H      1.36127     0.10635    -6.26015
H      2.26953    -0.92006    -7.37633
C     -1.41678     0.72456    -4.72177
O     -1.69710    -0.05190    -3.56724
H     -0.54604     1.36838    -4.57038
H     -1.51714     0.50405    -2.78098
H     -1.20826     0.05884    -5.55928
H     -2.27041     1.34881    -4.99138
C      3.61635     2.16142     2.38277
O      2.39077     1.76999     1.78313
H      4.43753     1.53655     2.03045
H      2.28239     0.81032     1.94153
H      3.82012     3.19351     2.10665
H      3.56232     2.08812     3.47256
C      0.28373    -2.67194    -2.30686
O      0.48169    -1.66596    -3.27783
H     -0.40000    -3.44180    -2.67540
H     -0.35291    -1.17100    -3.39131
H      1.24397    -3.14599    -2.11098
H     -0.11016    -2.27053    -1.37259
C      1.39572    -1.58242     1.49156
O      1.88433    -0.77535     2.56176
H      0.82446    -2.43344     1.86308
H      1.17757    -0.65843     3.20974
H      0.76125    -1.01094     0.81270
H      2.25422    -1.95110     0.93485
C     -3.39415    -0.14083     2.93976
O     -2.19564    -0.84463     2.64446
H     -4.23830    -0.71305     2.56021
H     -1.49149    -0.48900     3.21564
H     -3.51700    -0.01503     4.01532
H     -3.39584     0.84479     2.46816
C      0.58468     1.17571    -1.32195
O     -0.83553     1.09939    -1.29225
H      1.04039     0.21797    -1.57163
H     -1.08399     0.37155    -0.68949
H      0.86280     1.89538    -2.08953
H      0.98694     1.52281    -0.37076
C     -2.81307    -1.56623    -0.62448
O     -1.68706    -1.03350     0.05963
H     -3.59852    -0.81494    -0.73107
H     -1.88661    -1.03852     1.01690
H     -2.50962    -1.88949    -1.61737
H     -3.22103    -2.42618    -0.09164
C      0.20765     0.40844     5.55373
O     -0.27826     0.34539     4.22068
H     -0.35773     1.13795     6.13204
H     -0.16436     1.24535     3.82236
H      0.09517    -0.57293     6.00495
H      1.26223     0.68930     5.56381
C     -0.82911     2.83323     1.94659
O      0.13721     2.62731     2.97204
H     -0.46484     3.54849     1.21146
H      0.99947     2.47858     2.52618
H     -1.08693     1.91132     1.42154
H     -1.72939     3.23457     2.40610
