 36
-694.8466204759233
C      1.59569     3.98714    -0.02844
O      0.79025     2.89810     0.38607
H      1.99600     4.52208     0.83456
H      1.35053     2.29683     0.92109
H      2.42797     3.64658    -0.64905
H      0.97744     4.67082    -0.60655
C      0.24894     1.27628    -2.47630
O     -0.36219     1.12676    -1.20743
H      1.33140     1.13044    -2.42143
H     -0.05642     1.87706    -0.64945
H     -0.16648     0.52855    -3.15029
H      0.04970     2.26304    -2.89428
C     -2.37028    -0.83894     1.41154
O     -1.58848    -2.01170     1.24958
H     -2.13020    -0.09355     0.65084
H     -0.70584    -1.70798     0.98079
H     -3.42015    -1.10976     1.31669
H     -2.21158    -0.39468     2.39670
C      1.12378    -2.02356    -0.80285
O      0.67015    -1.01390     0.09941
H      0.59689    -1.96527    -1.75287
H      0.25291    -0.29939    -0.42550
H      2.19766    -1.92296    -0.96682
H      0.92542    -2.99863    -0.36499
C     -2.33189    -2.16579    -2.05142
O     -1.80742    -3.25699    -1.32824
H     -1.95492    -1.20373    -1.69876
H     -1.87524    -3.04042    -0.38928
H     -2.04419    -2.28623    -3.09468
H     -3.42358    -2.13953    -2.00075
C      1.83837     0.88636     3.06340
O      2.12732     0.97382     1.67091
H      0.87635     0.40024     3.23019
H      1.85113     0.14602     1.25103
H      2.62061     0.32884     3.57758
H      1.80013     1.89649     3.46916
