 42
-810.6648182609921
C     -1.99566    -1.94719     1.86460
O     -1.29649    -0.75477     1.53481
H     -1.94924    -2.66692     1.04481
H     -0.38801    -1.00767     1.28610
H     -1.58618    -2.40545     2.76070
H     -3.03956    -1.69357     2.04469
C      1.62958     1.87033     1.22286
O      2.32278     0.97890     0.35313
H      2.21763     2.00777     2.12776
H      2.13448     1.27419    -0.56119
H      1.47768     2.83719     0.74186
H      0.65360     1.45962     1.49345
C      1.20885    -1.89875    -0.68559
O      1.23550    -1.40649     0.65424
H      0.41434    -1.42249    -1.26271
H      1.74753    -0.56230     0.63300
H      2.16503    -1.70437    -1.16621
H      1.03955    -2.97363    -0.65150
C     -2.72073     1.97232     0.18466
O     -2.49973     0.68195    -0.36247
H     -3.33651     1.90997     1.08164
H     -2.12401     0.13422     0.36241
H     -1.77407     2.45438     0.44004
H     -3.24036     2.58212    -0.55283
C     -1.70082     0.97307    -3.66019
O     -0.94294     0.73675    -2.49049
H     -1.10425     0.70321    -4.52977
H     -1.56957     0.69282    -1.73334
H     -2.60614     0.36487    -3.66489
H     -1.98536     2.02614    -3.73734
C      1.05858    -2.11474     3.98646
O      0.95820    -3.07168     2.94975
H      0.28838    -1.34446     3.89557
H      1.18657    -2.61579     2.13225
H      0.92203    -2.63000     4.93582
H      2.03713    -1.62733     3.99605
C      2.01818     2.11334    -3.33254
O      1.48054     1.74098    -2.07797
H      3.01192     2.52749    -3.17598
H      0.58550     1.37487    -2.23581
H      2.09644     1.25031    -3.99776
H      1.39604     2.86888    -3.81716
