 36
-694.8554386542048
C     -0.47046     2.92713    -0.65658
O      0.08885     1.65113    -0.39425
H     -0.44821     3.51612     0.25835
H     -0.04259     1.08287    -1.20004
H      0.10528     3.44386    -1.42364
H     -1.50496     2.83088    -0.98861
C      0.89095    -0.82900    -2.56971
O     -0.25021     0.00397    -2.38595
H      1.56501    -0.33593    -3.26696
H     -0.96200    -0.56776    -2.00919
H      1.41417    -1.00219    -1.62579
H      0.60246    -1.79122    -2.99223
C      0.29784    -2.46210     1.41058
O     -1.03580    -1.97711     1.43162
H      0.99247    -1.69731     1.05756
H     -1.00013    -1.07392     1.80356
H      0.60168    -2.78705     2.40638
H      0.34524    -3.32310     0.74508
C      3.67562     0.74476    -0.43559
O      2.59839     0.47159     0.44161
H      4.15663     1.69823    -0.20058
H      1.84882     1.02773     0.19156
H      4.41385    -0.04935    -0.32683
H      3.35060     0.77110    -1.47948
C     -3.09782    -0.55976    -0.64722
O     -2.00652    -1.40573    -0.99436
H     -3.97700    -1.15138    -0.39274
H     -1.63111    -1.74149    -0.14929
H     -2.83897     0.07740     0.20047
H     -3.33900     0.06932    -1.50391
C      0.32422     0.90643     2.96934
O     -0.68195     0.63625     2.00516
H      0.40856     1.97858     3.15889
H     -0.40647     1.02440     1.15438
H      0.04295     0.41742     3.90050
H      1.29639     0.52864     2.65262
