 30
-579.0400511983548
C      3.28663     0.89456    -0.10449
O      1.92539     0.73932     0.26157
H      3.61945     1.88164     0.21029
H      1.66248    -0.18025     0.03838
H      3.90716     0.14269     0.38852
H      3.41538     0.80094    -1.18512
C     -1.31071    -0.38564     2.27222
O     -1.94353    -1.37827     1.48911
H     -2.00365     0.42187     2.52755
H     -2.06049    -1.01587     0.60281
H     -0.97547    -0.84824     3.20139
H     -0.44054     0.05228     1.77772
C     -1.82570    -0.31415    -2.48169
O     -1.61713    -0.23717    -1.07854
H     -2.46303     0.50263    -2.82207
H     -1.20863     0.63950    -0.89388
H     -0.87382    -0.26169    -3.01467
H     -2.31012    -1.26059    -2.70677
C     -0.74086     3.06749     0.26316
O     -0.30363     2.00095    -0.56413
H     -0.01310     3.88096     0.26505
H      0.57251     1.69057    -0.25063
H     -1.68455     3.44189    -0.12908
H     -0.89161     2.72977     1.29126
C      0.96477    -2.71606     0.45077
O      0.93771    -1.62108    -0.46548
H      1.98685    -2.81928     0.81299
H      0.02064    -1.45430    -0.72667
H      0.29586    -2.53524     1.28944
H      0.67847    -3.64048    -0.05223
