 36
-694.8520936226708
C     -1.35589     0.40880    -2.32019
O     -0.23867     1.17719    -1.88541
H     -1.25970    -0.63096    -1.99933
H     -0.50986     1.62397    -1.05929
H     -2.28360     0.81500    -1.91892
H     -1.39931     0.43405    -3.40906
C      1.89518     1.15213     1.48176
O      1.47198     0.31247     2.54673
H      2.92607     1.44473     1.68182
H      0.53187     0.14775     2.44060
H      1.86434     0.63739     0.52097
H      1.29014     2.05869     1.41264
C      2.20969    -0.86029    -3.20011
O      1.68103    -0.67518    -1.89824
H      3.12024    -1.45104    -3.12514
H      1.08703     0.10498    -1.92577
H      1.49890    -1.38547    -3.84268
H      2.45585     0.09824    -3.66025
C      1.20904    -2.66410     0.96236
O      0.35077    -1.99579     0.04078
H      0.62911    -2.92210     1.84799
H      0.89570    -1.62701    -0.68487
H      1.60214    -3.58415     0.52679
H      2.03414    -2.02116     1.26607
C     -2.53553     2.66212     0.43357
O     -1.25248     2.05837     0.42104
H     -2.62330     3.35913     1.26866
H     -1.28331     1.23599     0.94051
H     -2.67323     3.21328    -0.49659
H     -3.32341     1.90890     0.51307
C     -2.00655    -1.38781     2.27800
O     -1.23350    -0.48046     1.50746
H     -1.51729    -1.57959     3.23487
H     -0.68504    -1.01510     0.88498
H     -2.98761    -0.95432     2.46202
H     -2.12984    -2.33304     1.75056
