 48
-926.4706205806696
C     -1.33365     0.68496     2.43808
O     -0.65720     1.51024     1.50041
H     -0.70490    -0.16882     2.67332
H     -1.23875     2.27180     1.28996
H     -1.54973     1.23060     3.35821
H     -2.27781     0.31807     2.02931
C     -1.85976    -0.67912    -0.81220
O     -0.75139     0.20628    -0.94479
H     -1.78454    -1.27696     0.09405
H     -0.48362     0.50312    -0.05517
H     -2.79713    -0.12041    -0.79871
H     -1.85885    -1.35263    -1.66464
C     -0.21448     3.28732    -2.07382
O     -1.43555     2.63308    -1.76231
H      0.38822     3.46343    -1.17877
H     -1.21949     1.68666    -1.60642
H      0.37761     2.69850    -2.77688
H     -0.44378     4.24545    -2.53834
C      1.96897    -0.77038    -2.61845
O      1.98744    -1.75997    -1.60520
H      1.68998    -1.24426    -3.55810
H      2.25791    -1.33668    -0.76164
H      1.24873     0.01303    -2.38509
H      2.95868    -0.32416    -2.74180
C      0.80021    -3.42317     2.52367
O      0.22610    -2.30252     1.87247
H      0.03076    -4.14519     2.80639
H     -0.00667    -2.59753     0.96786
H      1.52600    -3.93013     1.88275
H      1.30619    -3.08551     3.42808
C      2.64983     0.61541     1.10765
O      2.41823    -0.75794     0.82267
H      3.23295     1.03283     0.28745
H      1.72268    -1.11186     1.40025
H      1.71882     1.16942     1.20082
H      3.22990     0.72435     2.02545
C     -1.96937     4.86469     0.81682
O     -2.25062     3.48588     0.64996
H     -2.39389     5.19449     1.76197
H     -2.11622     3.26186    -0.29648
H     -0.89178     5.04698     0.82922
H     -2.41178     5.45412     0.01213
C      0.13812    -4.56276    -0.96959
O     -0.02576    -3.19330    -0.65513
H      1.14388    -4.90831    -0.71852
H      0.67759    -2.68139    -1.12181
H     -0.58664    -5.13903    -0.39700
H     -0.03669    -4.74297    -2.03131
