 48
-926.4796222849552
C     -1.82440    -3.31166     3.17131
O     -1.84073    -2.06023     2.51608
H     -2.60027    -3.97047     2.77693
H     -1.55096    -2.21252     1.58848
H     -0.85746    -3.80824     3.05560
H     -2.01254    -3.16028     4.23378
C     -2.93141    -0.61211    -2.24676
O     -1.60168    -0.61484    -1.75903
H     -3.28832     0.40918    -2.39079
H     -1.03995    -0.17781    -2.43752
H     -3.00433    -1.14627    -3.19616
H     -3.57100    -1.10436    -1.51543
C      0.58259    -0.38576    -4.44335
O     -0.03503     0.53735    -3.56231
H      1.28538     0.12059    -5.10559
H      0.68954     1.06981    -3.15641
H      1.12136    -1.15673    -3.88653
H     -0.18619    -0.86018    -5.05159
C     -1.32459     2.03480     1.01979
O     -0.10185     1.90260     1.73199
H     -2.13738     2.29440     1.69637
H     -0.26114     1.26815     2.46685
H     -1.20565     2.84196     0.29833
H     -1.58360     1.11949     0.48363
C      0.87121    -0.63499     3.65402
O     -0.41416    -0.04845     3.53832
H      1.59399     0.14760     3.88495
H     -1.01891    -0.75472     3.22005
H      0.89873    -1.36395     4.46445
H      1.16697    -1.12758     2.72418
C      0.52264    -2.41697     0.02991
O     -0.89221    -2.34637     0.07421
H      0.97934    -1.43697     0.18140
H     -1.16579    -1.71491    -0.62939
H      0.86379    -3.08949     0.81846
H      0.86249    -2.82390    -0.92254
C      1.83509     3.27336    -2.29389
O      1.91405     1.85960    -2.36252
H      1.20556     3.58843    -1.45929
H      1.97045     1.55004    -1.43250
H      2.82873     3.70629    -2.16454
H      1.41037     3.65340    -3.22290
C      3.11294     1.52436     0.89416
O      1.92616     1.19694     0.19728
H      3.96557     1.36719     0.23320
H      1.17203     1.47938     0.76658
H      3.10793     2.56845     1.21384
H      3.23355     0.88810     1.77244
