 54
-1042.2851922020593
C      4.40254     0.60899     0.37546
O      3.03494     0.91385     0.16850
H      4.48945    -0.00829     1.26786
H      2.94735     1.36134    -0.71916
H      4.80926     0.06356    -0.47604
H      4.97678     1.52505     0.52030
C     -0.88517     2.27325    -1.83677
O      0.08081     1.44726    -2.48489
H     -1.17916     3.06862    -2.51802
H     -0.07603     0.54241    -2.15666
H     -1.76846     1.69113    -1.57635
H     -0.47554     2.71639    -0.92808
C     -0.18761    -2.06963    -1.99117
O     -0.47441    -0.87964    -1.26617
H     -0.87365    -2.14066    -2.83410
H      0.06789    -0.89896    -0.43111
H      0.83073    -2.03835    -2.37762
H     -0.31949    -2.93671    -1.35096
C     -3.97338    -1.72543     2.54846
O     -2.75307    -1.39511     1.91320
H     -4.65988    -2.22265     1.85929
H     -2.96794    -0.96799     1.05920
H     -3.76229    -2.40256     3.37518
H     -4.46356    -0.83459     2.94702
C     -0.26407    -3.98607     1.32709
O     -1.46251    -3.58933     0.69209
H     -0.44320    -4.36759     2.33798
H     -1.86797    -2.85955     1.18570
H      0.17444    -4.79667     0.74268
H      0.46034    -3.17020     1.37864
C     -3.67493    -1.70453    -1.36910
O     -3.08290    -0.63791    -0.64647
H     -3.72601    -1.46687    -2.43386
H     -2.14778    -0.61282    -0.92660
H     -3.12068    -2.63539    -1.23911
H     -4.69143    -1.84713    -1.00648
C      1.35356     3.34581     2.60838
O      1.24516     2.98512     1.24622
H      2.33485     3.76887     2.84432
H      1.90652     2.31272     1.03641
H      0.59273     4.09623     2.82101
H      1.17951     2.49240     3.27233
C      0.50743    -0.29434     1.99781
O      1.09275    -0.80430     0.79894
H      0.06863     0.69062     1.83600
H      1.84557    -0.22153     0.56776
H     -0.27391    -0.96998     2.33058
H      1.26223    -0.21902     2.78125
C      2.61698     3.61768    -1.93388
O      2.58106     2.19828    -2.02384
H      1.95718     3.98011    -1.14524
H      1.66811     1.94611    -2.30084
H      3.63773     3.92329    -1.71098
H      2.32035     4.06897    -2.88069
