 36
-694.8567066888013
C      1.42308     1.57727    -1.93642
O      0.75202     2.36583    -0.95545
H      0.86440     1.57371    -2.87243
H     -0.20520     2.18410    -1.06188
H      2.40366     2.01278    -2.11645
H      1.54787     0.54547    -1.60229
C      0.83757     2.62499     2.40816
O      1.34795     1.63035     1.53908
H      1.21007     3.61141     2.13108
H      1.21166     1.95328     0.61854
H     -0.25403     2.64537     2.37968
H      1.15943     2.40282     3.42451
C      0.81221    -3.45868    -0.42078
O      0.62033    -2.06488    -0.55074
H      1.79681    -3.68141    -0.00696
H      0.65429    -1.67598     0.35082
H      0.05267    -3.90613     0.22535
H      0.74614    -3.91729    -1.40610
C     -2.46357    -1.98376    -1.78137
O     -1.39267    -1.08429    -1.98974
H     -2.30602    -2.91301    -2.33210
H     -0.61723    -1.44978    -1.51327
H     -2.58575    -2.22474    -0.72234
H     -3.38398    -1.52827    -2.14454
C      1.47264    -1.48791     2.87302
O      0.69340    -0.92436     1.83455
H      1.11807    -2.49770     3.07340
H      0.93732     0.02695     1.77092
H      2.52792    -1.52955     2.59256
H      1.37971    -0.90494     3.79042
C     -2.21024     1.25903     0.22236
O     -1.78768     1.43653    -1.11953
H     -1.49115     0.68251     0.81056
H     -1.70469     0.54389    -1.51590
H     -2.32421     2.24498     0.67060
H     -3.17893     0.75940     0.26897
