 54
-1042.2832042854252
C      2.93368     0.79466     0.87827
O      1.64772     1.34327     1.16609
H      3.29457     0.29531     1.77573
H      1.43947     2.04660     0.50194
H      2.86986     0.07194     0.06788
H      3.63218     1.58743     0.61077
C     -2.82584     2.41508    -0.89739
O     -1.82729     2.65747     0.08999
H     -3.78519     2.82425    -0.57778
H     -1.76091     1.88469     0.66904
H     -2.52470     2.91076    -1.82118
H     -2.93321     1.34832    -1.08939
C     -0.42066    -0.19138    -1.71202
O     -1.43092    -0.81074    -0.91066
H     -0.55178    -0.52039    -2.74194
H     -1.28017    -0.54013     0.01204
H     -0.51530     0.89302    -1.68669
H      0.57268    -0.47724    -1.37850
C      1.22341    -5.20788    -2.08919
O      0.98119    -3.84390    -2.37708
H      0.63695    -5.85991    -2.74069
H      0.02318    -3.68341    -2.25437
H      2.27905    -5.41230    -2.25704
H      0.98026    -5.44816    -1.05120
C      1.29813    -2.46598     0.56168
O      2.15406    -2.19498    -0.52958
H      1.26717    -1.60525     1.22656
H      1.84884    -2.75312    -1.26419
H      0.27745    -2.68977     0.24610
H      1.66172    -3.31793     1.14043
C     -2.52540    -3.30145    -2.98732
O     -1.60976    -3.28580    -1.90878
H     -2.24981    -2.56947    -3.75065
H     -1.65638    -2.40236    -1.48682
H     -2.51519    -4.29311    -3.43628
H     -3.53887    -3.08597    -2.64440
C      0.10690     3.32447     3.43582
O      0.92404     2.22278     3.77687
H     -0.36028     3.20880     2.45565
H      1.39679     1.95976     2.98000
H     -0.68344     3.41128     4.18140
H      0.67805     4.25748     3.43568
C     -1.24964    -0.14859     2.78664
O     -0.86173     0.32459     1.49817
H     -1.11994     0.63275     3.53311
H      0.07863     0.59860     1.51174
H     -2.29750    -0.43742     2.73020
H     -0.65815    -1.02184     3.06783
C      1.16073     4.57703    -0.27540
O      0.77932     3.21938    -0.45453
H      0.76832     4.97700     0.66235
H     -0.19267     3.15492    -0.36060
H      2.24795     4.62879    -0.25000
H      0.80187     5.19396    -1.10010
