 60
-1158.0990395314955
C      4.70090     2.25020    -1.20347
O      3.82496     1.31502    -1.79045
H      5.65796     1.79804    -0.92745
H      3.69125     0.59317    -1.15947
H      4.89471     3.04601    -1.92273
H      4.27015     2.70139    -0.30267
C      2.61327    -3.39456    -2.11110
O      1.94338    -2.53269    -1.21027
H      3.38228    -2.84772    -2.66000
H      1.50087    -1.82321    -1.75199
H      3.08386    -4.19381    -1.54386
H      1.91316    -3.83067    -2.82410
C      1.12470     2.16914    -0.10698
O      0.10781     1.43587    -0.78282
H      0.69630     2.76481     0.69881
H     -0.73803     1.90112    -0.60074
H      1.85188     1.48300     0.32514
H      1.64380     2.83341    -0.79869
C      1.16803     0.01358    -3.60690
O      0.75199    -0.58077    -2.38113
H      0.37972     0.64958    -4.01215
H      0.48904     0.14746    -1.77092
H      2.06754     0.60878    -3.45903
H      1.37339    -0.77493    -4.33081
C      4.59736    -1.18518     0.91207
O      3.50559    -0.70467     0.14694
H      5.02354    -2.09140     0.47507
H      3.00512    -1.46807    -0.19193
H      5.37047    -0.41831     0.94321
H      4.28788    -1.40066     1.93752
C     -4.11800    -1.09496     3.63992
O     -3.07757    -0.48617     2.89475
H     -3.74669    -1.96018     4.19149
H     -2.85751    -1.10025     2.15788
H     -4.51198    -0.37128     4.35212
H     -4.93025    -1.42139     2.98555
C     -4.88595     1.40146     1.03191
O     -3.70260     1.79917     1.70860
H     -4.96214     1.95754     0.09702
H     -3.41202     1.02436     2.23878
H     -4.86822     0.33372     0.80969
H     -5.76384     1.62182     1.64083
C     -2.54575    -1.20776    -0.44334
O     -2.50189    -1.97800     0.75489
H     -1.71047    -1.45695    -1.09361
H     -1.59668    -2.35226     0.79646
H     -3.47684    -1.42527    -0.96650
H     -2.51450    -0.13819    -0.23742
C      0.56409    -1.36823     1.55227
O      0.09265    -2.54486     0.89272
H      1.48633    -1.56564     2.09869
H      0.69878    -2.72814     0.15943
H      0.74166    -0.55519     0.84882
H     -0.19680    -1.05485     2.26532
C     -1.87891     4.14302     0.07913
O     -2.06182     2.75029    -0.11467
H     -1.74602     4.37340     1.13805
H     -2.64404     2.42692     0.61176
H     -0.98850     4.46416    -0.46086
H     -2.73754     4.69961    -0.30077
