 36
-694.8479273177805
C     -0.23656     0.92126    -3.14905
O      0.01356     0.44413    -1.84017
H      0.51239     0.50191    -3.81727
H     -0.56818     0.94788    -1.21565
H     -1.22743     0.61066    -3.48567
H     -0.17593     2.00975    -3.18521
C      1.72846     1.91079     1.97769
O      2.14142     0.55920     1.93305
H      1.64059     2.21409     3.02154
H      2.40134     0.37907     1.01696
H      2.45227     2.57234     1.49451
H      0.75856     2.05252     1.49362
C      2.82706    -1.32683    -0.94269
O      2.52947     0.04552    -0.74595
H      3.85668    -1.49839    -0.63510
H      1.67821     0.23090    -1.17097
H      2.16952    -1.96453    -0.34935
H      2.73047    -1.60357    -1.99581
C     -1.49924    -2.95991    -0.98832
O     -0.48633    -2.11085    -0.46280
H     -1.25145    -3.30503    -1.99543
H     -0.29417    -1.41390    -1.10671
H     -1.57870    -3.82599    -0.33445
H     -2.46582    -2.44745    -1.01471
C     -2.89990     1.84006    -0.39743
O     -1.54426     1.57027    -0.08313
H     -2.93529     2.57725    -1.19769
H     -1.53504     0.93259     0.67203
H     -3.41649     0.93483    -0.72740
H     -3.42274     2.24445     0.46911
C     -0.86832    -0.38752     2.96883
O     -1.45542    -0.39138     1.66778
H     -1.30345     0.44358     3.52156
H     -1.08568    -1.12448     1.15436
H     -1.10594    -1.31267     3.49623
H      0.20907    -0.25829     2.89991
