 54
-1042.2842801946813
C      2.31171     0.63662    -0.78918
O      1.55028    -0.47171    -0.31776
H      2.43721     1.38059    -0.00544
H      0.61266    -0.22889    -0.31681
H      3.29073     0.26595    -1.08401
H      1.83657     1.09609    -1.65279
C     -1.67966     1.95725    -3.83927
O     -0.62205     1.40898    -3.07177
H     -2.57019     2.10492    -3.22248
H     -0.36412     2.07134    -2.39797
H     -1.39083     2.91613    -4.27284
H     -1.92194     1.26887    -4.64811
C     -2.58841    -3.65466    -0.50713
O     -1.77334    -2.59077    -0.06109
H     -3.43334    -3.29891    -1.10454
H     -1.55837    -2.03707    -0.83333
H     -2.02185    -4.37160    -1.10941
H     -2.98173    -4.18196     0.36260
C      3.05028     1.38599     2.72566
O      1.76165     1.91747     2.47949
H      3.22501     1.22573     3.79266
H      1.10628     1.26666     2.75940
H      3.21124     0.44070     2.20224
H      3.78530     2.10520     2.36263
C     -1.21803    -1.06409     3.25338
O     -0.09051    -0.31141     2.81194
H     -0.99600    -1.55233     4.20112
H      0.62047    -0.96175     2.59114
H     -2.05067    -0.38068     3.40971
H     -1.50414    -1.81590     2.51785
C     -2.26119     0.75936     0.31873
O     -0.87412     1.00534     0.55570
H     -2.56128    -0.20787     0.71439
H     -0.62138     0.59779     1.40668
H     -2.86856     1.54031     0.77966
H     -2.44887     0.76656    -0.75155
C      0.71395     4.06421    -0.45099
O     -0.07764     3.02863    -1.02492
H      0.09172     4.92602    -0.20491
H     -0.33668     2.40950    -0.31671
H      1.21947     3.71192     0.44864
H      1.46169     4.37477    -1.17941
C      1.35692    -3.27428     1.62836
O      1.77607    -1.93948     1.88685
H      2.07811    -3.78602     0.98897
H      1.84842    -1.47044     1.02816
H      1.30492    -3.80306     2.57820
H      0.37609    -3.29828     1.15192
C     -0.06489    -1.90699    -2.92266
O     -1.04282    -1.12192    -2.25355
H     -0.04717    -1.67940    -3.98999
H     -0.89229    -0.18811    -2.51306
H      0.92538    -1.73351    -2.50341
H     -0.32101    -2.95884    -2.80576
