 36
-694.8515434121513
C     -1.09330     3.13139    -1.23215
O      0.23032     3.29682    -0.77391
H     -1.71692     3.87099    -0.73079
H      0.75016     2.53038    -1.03789
H     -1.16724     3.30783    -2.30951
H     -1.48956     2.13859    -1.00949
C      2.76465    -0.15213    -1.32865
O      1.75439     0.76346    -0.92981
H      3.02891     0.06041    -2.36051
H      1.72166     0.74569     0.06233
H      3.64883    -0.03840    -0.70401
H      2.40842    -1.18170    -1.25178
C      0.40976     1.60821     2.02269
O      1.31187     0.57560     1.62861
H     -0.50574     1.58994     1.42965
H      0.90469    -0.27845     1.90098
H      0.14807     1.50110     3.07508
H      0.89546     2.57038     1.87962
C     -3.05490    -2.05585     0.16615
O     -1.64334    -2.08421     0.28331
H     -3.45859    -1.09563     0.49632
H     -1.28843    -1.45247    -0.37438
H     -3.36275    -2.22357    -0.86862
H     -3.47314    -2.84782     0.78414
C     -0.95650    -0.28456    -2.80736
O     -0.66716    -0.29806    -1.42247
H     -0.93949     0.73285    -3.19960
H      0.20638     0.12288    -1.27827
H     -0.24047    -0.88748    -3.36952
H     -1.95412    -0.69362    -2.96091
C      0.96594    -2.82470     2.35850
O      0.10282    -1.70022     2.29699
H      1.68108    -2.66909     3.16366
H     -0.60932    -1.90112     1.65590
H      0.40316    -3.73549     2.56504
H      1.51069    -2.95310     1.41952
