 42
-810.6666651705622
C     -2.53836    -1.95462    -0.20708
O     -1.30275    -2.16100    -0.88065
H     -2.46697    -2.26794     0.83536
H     -0.60410    -2.11451    -0.20216
H     -2.82103    -0.89926    -0.23151
H     -3.31269    -2.53998    -0.70053
C      1.54599     0.69003     3.16079
O      0.36899     0.30744     2.46374
H      2.39304     0.77836     2.47952
H      0.07509     1.09463     1.94231
H      1.40256     1.64149     3.67185
H      1.76850    -0.06629     3.91214
C      3.44738    -1.14857    -0.85592
O      2.70179    -0.22629    -0.08775
H      2.81982    -1.69041    -1.57102
H      1.92353    -0.67765     0.25605
H      4.20520    -0.59933    -1.41340
H      3.95578    -1.88403    -0.22630
C      0.31585     0.01491    -2.90644
O     -1.06237    -0.10659    -2.58139
H      0.42417     0.78440    -3.66811
H     -1.16811    -0.93396    -2.06267
H      0.91293     0.28800    -2.03232
H      0.69789    -0.92439    -3.30914
C     -3.24341     2.24791    -1.47765
O     -1.93888     1.89840    -1.05496
H     -3.90733     1.38193    -1.43354
H     -1.61193     1.19948    -1.66397
H     -3.62874     3.02248    -0.81795
H     -3.23073     2.62474    -2.50179
C      1.10807    -2.90664     1.83544
O      0.49583    -1.87314     1.09006
H      0.38712    -3.37613     2.50488
H      0.35075    -1.09837     1.69376
H      1.48858    -3.65175     1.14010
H      1.93974    -2.51779     2.42406
C      0.79706     3.00693     0.31336
O     -0.29362     2.38125     0.98237
H      1.28292     3.69556     1.00346
H     -0.97533     2.21992     0.30081
H      1.52000     2.26379    -0.02864
H      0.43749     3.56849    -0.54806
