 36
-694.8513470606414
C     -1.20326     2.97152     0.33225
O     -0.58545     1.75272    -0.03666
H     -1.92270     2.81627     1.13846
H     -0.18600     1.34731     0.77125
H     -0.45474     3.69259     0.66066
H     -1.72237     3.37895    -0.53256
C      2.80324     2.13156     0.05607
O      2.21051     1.84959    -1.19412
H      2.83854     1.24901     0.69643
H      1.26425     1.75760    -1.05717
H      3.82346     2.47053    -0.12232
H      2.27036     2.92021     0.59376
C     -0.43932    -0.05835     2.95188
O      0.48232     0.43688     1.99374
H     -1.37347    -0.37242     2.47643
H      0.88990    -0.34479     1.54416
H     -0.02346    -0.91174     3.48703
H     -0.65766     0.73213     3.66749
C     -1.52066    -3.24216    -0.64050
O     -0.51622    -2.36768    -1.11744
H     -1.08565    -4.22821    -0.49463
H     -0.95887    -1.54663    -1.41624
H     -1.92903    -2.89305     0.31216
H     -2.33816    -3.33007    -1.35685
C     -3.13506     0.06112    -1.33110
O     -1.75430    -0.03031    -1.62161
H     -3.63443    -0.83842    -1.69017
H     -1.30792     0.66321    -1.09747
H     -3.31149     0.14947    -0.25600
H     -3.58611     0.92094    -1.83110
C      2.57915    -1.60131    -0.09259
O      1.35849    -1.64496     0.63565
H      2.56924    -0.79312    -0.82370
H      0.66791    -1.97567     0.01802
H      3.39512    -1.44395     0.61171
H      2.75323    -2.54505    -0.61028
