 60
-1158.099311880558
C      3.91901    -3.33733    -1.02375
O      2.94726    -2.31187    -0.96795
H      4.60086    -3.20680    -1.86954
H      3.40186    -1.46926    -1.12334
H      4.51581    -3.37115    -0.10554
H      3.41273    -4.29640    -1.13649
C     -0.09009     4.18182    -2.37055
O      0.35244     3.65304    -1.13104
H     -0.75277     3.48348    -2.88750
H     -0.45156     3.34201    -0.64864
H     -0.62564     5.11902    -2.21831
H      0.77694     4.37697    -2.99917
C      4.36500     0.17119    -2.98289
O      4.06775     0.15237    -1.59637
H      3.47945    -0.05229    -3.58364
H      3.33760     0.77953    -1.45377
H      4.76196     1.14112    -3.28814
H      5.11913    -0.58903    -3.18310
C      0.74840     0.61246    -1.84037
O      1.69524     1.42682    -1.13857
H     -0.18232     0.50997    -1.28493
H      1.31061     2.33906    -1.09686
H      0.52770     1.05200    -2.81019
H      1.17607    -0.37620    -1.99164
C      3.30902    -0.09150     1.67497
O      1.96349     0.23063     1.34370
H      3.51101    -1.14500     1.47846
H      1.93628     0.69460     0.49062
H      4.01187     0.51413     1.10415
H      3.46311     0.10311     2.73529
C     -4.17407    -2.61333     0.62746
O     -4.02132    -1.23421     0.90454
H     -4.62850    -2.73028    -0.35512
H     -3.52482    -1.16362     1.75182
H     -3.21216    -3.12778     0.63044
H     -4.82217    -3.08800     1.36519
C     -3.87024     0.71733    -1.88804
O     -2.92644     0.36941    -0.88917
H     -4.79852     1.07929    -1.44287
H     -3.37653    -0.23354    -0.25268
H     -3.45173     1.50716    -2.51302
H     -4.09490    -0.14190    -2.52424
C     -2.63433    -2.02895     4.12243
O     -2.47618    -1.10896     3.05776
H     -2.36513    -3.04296     3.81563
H     -1.55202    -1.18247     2.73425
H     -2.01628    -1.74687     4.97570
H     -3.67728    -2.02221     4.43527
C     -0.29009    -2.05097     0.66744
O     -0.06545    -1.39747     1.91444
H     -0.57047    -3.08586     0.86226
H      0.68425    -0.78187     1.77144
H     -1.09891    -1.57546     0.10754
H      0.61076    -2.04367     0.05838
C     -1.22058     2.15530     1.44947
O     -1.63617     2.47861     0.12414
H     -0.81665     3.05566     1.90887
H     -2.10916     1.69923    -0.23521
H     -2.05709     1.80811     2.05485
H     -0.44492     1.39023     1.44579
