 42
-810.6639543951969
C     -3.15518     0.26229     0.32487
O     -2.64739    -0.99977     0.73544
H     -3.45042     0.86029     1.18650
H     -2.09599    -0.83334     1.52884
H     -2.41128     0.81796    -0.24852
H     -4.03194     0.10062    -0.29985
C      0.24762    -1.14763     2.49963
O     -0.88487    -0.29200     2.62753
H      0.56311    -1.25769     1.45921
H     -0.61273     0.59344     2.33478
H      1.08716    -0.76253     3.08085
H     -0.02489    -2.12416     2.89430
C      1.95172    -2.19648    -2.14103
O      1.07797    -1.58904    -1.20955
H      2.88474    -1.63455    -2.14585
H      0.22220    -2.07643    -1.19870
H      2.17161    -3.22751    -1.86057
H      1.53066    -2.18377    -3.14942
C     -2.06616    -1.97275    -2.35143
O     -1.42635    -2.40644    -1.16113
H     -2.39047    -0.93582    -2.26179
H     -1.88417    -1.95480    -0.41525
H     -1.36655    -2.04555    -3.18508
H     -2.93213    -2.59963    -2.56935
C      1.16441     1.68025    -2.03138
O      0.24653     0.93824    -1.24443
H      1.20869     1.29066    -3.05002
H      0.55010     0.00345    -1.24072
H      0.82384     2.71353    -2.08426
H      2.16425     1.66295    -1.59977
C      3.40656     0.57106     0.88330
O      2.89465     1.89022     0.90507
H      2.76724    -0.11719     0.32389
H      2.00791     1.87283     1.27858
H      4.38476     0.60312     0.40434
H      3.54209     0.17666     1.89543
C     -0.64491     3.23812     1.14466
O     -0.08145     1.94107     1.21918
H     -1.67495     3.19878     0.78237
H     -0.01831     1.58193     0.30546
H     -0.64228     3.67414     2.14098
H     -0.06422     3.87796     0.47837
