 36
-694.847445350711
C     -3.30786     1.98339    -2.08330
O     -2.58164     1.58716    -0.93027
H     -4.36844     1.97355    -1.83552
H     -1.67493     1.35330    -1.19647
H     -3.03017     2.99277    -2.39276
H     -3.13169     1.29633    -2.91408
C      4.26817     1.46393     0.52777
O      2.94454     1.26287     0.97390
H      4.52162     2.51441     0.67024
H      2.75632     0.31476     0.93927
H      4.98524     0.85798     1.09039
H      4.37592     1.22504    -0.53528
C      2.60685    -2.62146     1.44039
O      2.10257    -1.41375     0.89241
H      3.36835    -3.01740     0.76904
H      1.15691    -1.35751     1.11317
H      3.05389    -2.44702     2.42176
H      1.81323    -3.36444     1.53983
C     -3.01989    -1.69663    -0.88421
O     -2.95693    -0.83578     0.24921
H     -3.99682    -1.62734    -1.36407
H     -3.01772     0.07933    -0.09126
H     -2.24874    -1.44227    -1.61374
H     -2.87019    -2.71965    -0.54444
C      1.15590     0.85973    -1.76823
O     -0.13178     0.37340    -1.37915
H      1.15385     0.96318    -2.85238
H     -0.03881    -0.13177    -0.56342
H      1.36001     1.82967    -1.31438
H      1.94023     0.16073    -1.47888
C     -0.56328     0.31706     2.13289
O     -0.50876    -0.84720     1.29764
H     -0.87575     0.03805     3.13776
H     -1.43122    -0.99847     0.99044
H      0.42859     0.76469     2.17042
H     -1.27153     1.03713     1.72443
