 54
-1042.2807320497661
C      2.96755     1.29267     1.38705
O      1.91238     0.88876     0.52509
H      3.04309     0.57945     2.20877
H      1.61238     1.68415     0.02641
H      3.91837     1.29877     0.85177
H      2.78163     2.27897     1.80904
C     -2.56328     1.95810    -0.73919
O     -1.69685     2.49080     0.25424
H     -3.58804     1.91461    -0.36868
H     -1.51037     1.81581     0.92450
H     -2.54110     2.62741    -1.59922
H     -2.24409     0.96454    -1.04725
C      0.18009     0.23840    -2.43858
O     -0.44596    -0.52939    -1.41798
H      0.97849     0.85268    -2.02809
H      0.24014    -1.06410    -0.97033
H      0.59003    -0.41020    -3.21462
H     -0.56197     0.89483    -2.89006
C      0.27628    -5.22967    -2.72197
O     -0.19911    -4.63360    -1.52439
H      0.63758    -4.47004    -3.41899
H     -0.95279    -4.05692    -1.76935
H      1.09409    -5.90059    -2.46967
H     -0.51216    -5.80602    -3.20867
C      1.94278    -2.71639     0.64681
O      1.09542    -2.52103    -0.47279
H      2.23297    -1.74292     1.03677
H      0.73927    -3.38217    -0.77892
H      1.43124    -3.27195     1.43631
H      2.84459    -3.26247     0.36683
C     -2.90151    -2.61174    -0.94220
O     -1.96039    -2.64343    -2.00615
H     -2.45829    -2.96895    -0.00909
H     -1.43162    -1.82187    -1.92924
H     -3.27199    -1.59789    -0.77692
H     -3.74233    -3.25309    -1.20081
C     -0.55763     3.93536     3.05693
O      0.54091     3.04168     3.04103
H     -0.23807     4.85597     3.54608
H      0.22597     2.16636     2.78574
H     -0.89384     4.17966     2.04733
H     -1.40610     3.52667     3.61296
C     -0.83278    -0.77745     2.14631
O     -0.31021     0.52671     1.95844
H     -1.92015    -0.71245     2.14390
H      0.51262     0.47988     1.42470
H     -0.51749    -1.45742     1.35536
H     -0.51914    -1.17002     3.11349
C      1.22306     4.31830    -0.10031
O      0.79585     3.05247    -0.57466
H      1.36631     4.30990     0.97862
H     -0.14856     2.93613    -0.34064
H      2.16499     4.56844    -0.58501
H      0.49680     5.09415    -0.35028
