 18
-347.41386524524466
C     -1.26188     2.19960    -0.62658
O     -0.73272     1.52538     0.50521
H     -0.79779     3.18228    -0.67334
H     -1.14820     0.65426     0.55776
H     -1.03612     1.65905    -1.54977
H     -2.34328     2.32432    -0.54639
C     -1.27249    -2.21047    -0.53299
O     -0.95406    -1.37205     0.56759
H     -0.92021    -1.77900    -1.47385
H      0.00799    -1.29306     0.61762
H     -0.83683    -3.20448    -0.41640
H     -2.35539    -2.30447    -0.57421
C      2.55499    -0.02794    -0.52975
O      1.66548    -0.11373     0.57340
H      2.00873     0.01262    -1.47608
H      1.11758     0.68253     0.58235
H      3.19830     0.85081    -0.45622
H      3.17734    -0.92007    -0.52221
