 60
-1158.0929510177195
C      0.01515     5.08555    -0.58512
O     -0.09929     4.25630     0.55754
H     -0.94996     5.55762    -0.76219
H      0.71914     3.73836     0.63922
H      0.76591     5.86482    -0.43419
H      0.28642     4.50008    -1.46811
C      3.41366     2.36190     0.24431
O      2.04411     2.49804     0.59248
H      3.89493     1.60696     0.86804
H      1.62305     1.62505     0.43581
H      3.51758     2.07440    -0.80360
H      3.90108     3.32055     0.40072
C      1.99927    -2.58221    -1.59847
O      2.16414    -2.25260    -0.22138
H      1.90144    -1.66711    -2.18062
H      1.70003    -2.94956     0.29200
H      2.87236    -3.12704    -1.95922
H      1.10993    -3.18803    -1.76128
C     -2.55119    -2.47942     0.28047
O     -1.73675    -3.48878    -0.29413
H     -3.59202    -2.60350    -0.02015
H     -1.56622    -3.21581    -1.22092
H     -2.50238    -2.54994     1.36713
H     -2.21702    -1.48654    -0.02372
C      0.12251    -0.27762     1.35308
O      1.01123     0.05684     0.26928
H     -0.04440    -1.35076     1.38402
H      1.57829    -0.74426     0.09946
H      0.55204     0.04302     2.29805
H     -0.82175     0.23476     1.20147
C      0.85586    -5.42464     0.57984
O      0.55776    -4.08059     0.91420
H      0.92631    -5.56104    -0.50254
H     -0.33056    -3.88112     0.54219
H      1.80983    -5.69388     1.02977
H      0.09000    -6.10160     0.96121
C      0.12741     0.89435    -2.94722
O     -0.45194    -0.01721    -2.03243
H     -0.10141     1.91812    -2.64982
H      0.00127     0.09977    -1.17771
H      1.21232     0.77610    -2.99635
H     -0.29279     0.71875    -3.93639
C     -2.44002    -2.26685    -3.49413
O     -1.26866    -2.44356    -2.71339
H     -2.18851    -2.22186    -4.55540
H     -0.92254    -1.54673    -2.51841
H     -3.11052    -3.11033    -3.33046
H     -2.95852    -1.34737    -3.21595
C      0.17262     2.74858     3.57678
O      1.46143     2.17164     3.48493
H     -0.13824     2.70015     4.61940
H      1.83413     2.40535     2.63155
H      0.16205     3.79415     3.26144
H     -0.55410     2.19972     2.97758
C     -3.17146     2.72282     1.42777
O     -2.07198     2.31058     0.64370
H     -2.85072     3.24289     2.33526
H     -1.43245     3.03962     0.61329
H     -3.83737     3.38789     0.87000
H     -3.74256     1.84242     1.72523
