 42
-810.6631195245996
C      0.79916    -2.85540     1.39945
O     -0.50729    -2.29706     1.38959
H      1.25193    -2.67809     2.37493
H     -0.67387    -2.01257     0.47676
H      0.75656    -3.93312     1.22735
H      1.42644    -2.39494     0.63455
C     -0.70650    -2.58649    -2.13648
O     -0.54378    -1.50653    -1.23778
H     -1.66937    -3.05351    -1.94130
H      0.37634    -1.15520    -1.35327
H     -0.68415    -2.24090    -3.17003
H      0.08038    -3.32853    -1.99934
C     -0.96368    -0.39840     4.31328
O     -0.34533    -0.14782     3.06972
H     -1.12048    -1.46662     4.48576
H     -0.49972    -0.91857     2.50061
H     -0.32434    -0.01690     5.11127
H     -1.93388     0.10396     4.38061
C      2.37997    -0.37196    -2.83324
O      1.88328    -0.55677    -1.51868
H      2.58502    -1.34548    -3.27563
H      1.97727     0.31803    -1.06038
H      1.65404     0.15911    -3.45444
H      3.30453     0.20331    -2.81858
C     -2.43331     0.92084    -2.64154
O     -2.20950     0.79611    -1.24675
H     -1.49214     0.93661    -3.19612
H     -1.77266    -0.05475    -1.09855
H     -3.04678     0.09880    -3.01325
H     -2.96085     1.85533    -2.81862
C      2.28584     1.73724     1.03453
O      1.92379     1.78953    -0.34251
H      2.31135     2.74013     1.46037
H      1.03288     2.20266    -0.38999
H      1.58842     1.12688     1.61073
H      3.28413     1.30917     1.11353
C     -1.02916     2.98349     1.04692
O     -0.59279     2.70746    -0.27887
H     -2.04324     3.38485     1.04406
H     -1.23194     2.06566    -0.64954
H     -0.99960     2.08848     1.67047
H     -0.36902     3.73665     1.47527
