 60
-1158.0898835903977
C      2.10450    -3.71367    -1.85145
O      1.72450    -3.02219    -0.66924
H      2.87486    -3.16474    -2.38922
H      1.34194    -2.16501    -0.92842
H      2.50042    -4.68579    -1.56257
H      1.25322    -3.85602    -2.51935
C     -0.83609     6.01262     0.51789
O     -0.52775     5.03241     1.49175
H     -0.94377     5.57011    -0.47773
H     -1.14657     4.30238     1.38921
H     -1.75622     6.54932     0.76029
H     -0.01520     6.72724     0.48566
C      2.03756    -0.01315    -4.13265
O      1.32351    -1.18991    -3.80815
H      2.85812     0.16390    -3.43065
H      0.87281    -1.00408    -2.97556
H      2.45330    -0.13019    -5.13100
H      1.38484     0.86512    -4.13088
C      1.68476     2.61393     0.20054
O      0.77160     1.53265     0.33344
H      2.71378     2.25457     0.22054
H      1.01912     0.99667     1.13493
H      1.50088     3.10202    -0.75535
H      1.53602     3.34061     0.99793
C     -1.57108    -2.00427     3.60606
O     -0.83559    -1.81898     2.41023
H     -0.91230    -1.97636     4.47775
H     -0.60358    -2.69096     2.02093
H     -2.30831    -1.20562     3.69822
H     -2.09809    -2.95905     3.59309
C      2.35679    -1.02907     2.16527
O      1.23095    -0.15367     2.22867
H      3.19933    -0.56027     2.67029
H      0.43535    -0.71871     2.33528
H      2.12515    -1.97231     2.65588
H      2.63531    -1.24119     1.13282
C     -1.54088     2.38759    -2.61516
O     -2.69094     2.07495    -1.86175
H     -1.29737     3.45372    -2.56502
H     -2.53290     2.36387    -0.95698
H     -0.66506     1.81775    -2.29263
H     -1.74016     2.14005    -3.65664
C     -1.01126    -0.90129    -0.95004
O      0.37759    -0.67501    -1.22825
H     -1.52164    -1.15810    -1.87401
H      0.64462     0.15164    -0.78594
H     -1.13279    -1.71442    -0.23870
H     -1.47128    -0.01127    -0.53523
C     -0.90581    -4.82651     0.35246
O     -0.02625    -3.98844     1.08079
H     -0.38393    -5.71246    -0.01135
H      0.69167    -3.71097     0.46957
H     -1.71040    -5.14687     1.01201
H     -1.34024    -4.30521    -0.50446
C     -2.25327     1.54296     1.82522
O     -1.77639     2.46662     0.85517
H     -2.20752     0.52034     1.44841
H     -0.86920     2.19540     0.62764
H     -1.67235     1.60659     2.74648
H     -3.28875     1.79167     2.04418
