 60
-1158.0939365236975
C     -0.63272    -1.17300     4.69612
O      0.15550    -0.82574     3.57181
H     -0.25068    -0.64802     5.57119
H     -0.10668    -1.42577     2.83784
H     -1.67858    -0.88894     4.54629
H     -0.58737    -2.24549     4.89383
C      0.58046     2.46018     4.19874
O      0.04252     1.82941     3.05868
H      0.47877     3.53907     4.08396
H      0.13896     0.86940     3.19012
H      0.05952     2.16562     5.11393
H      1.64256     2.22951     4.32880
C      1.33357     0.97670    -3.80249
O      0.37294     0.22550    -3.06741
H      2.32669     0.63442    -3.53148
H     -0.52450     0.49377    -3.37102
H      1.19230     0.84092    -4.87567
H      1.25618     2.04334    -3.57483
C     -2.55420     2.03520    -2.68632
O     -2.17524     0.91761    -3.47309
H     -2.33591     1.87389    -1.63056
H     -2.74075     0.16688    -3.19367
H     -1.99714     2.90277    -3.03709
H     -3.61696     2.24418    -2.79566
C      2.82241     0.25371     1.78840
O      2.44616    -0.52765     0.65776
H      3.88663     0.47103     1.71494
H      1.52376    -0.32862     0.43950
H      2.27630     1.19586     1.82876
H      2.65027    -0.30317     2.70928
C      0.23820    -3.09303     0.78037
O     -0.68076    -2.37608     1.60766
H      0.10510    -2.83097    -0.26935
H     -1.40005    -2.02367     1.06539
H      1.25466    -2.84352     1.07561
H      0.08920    -4.16541     0.90459
C     -2.66681    -2.28985    -2.75126
O     -3.44127    -1.16907    -2.32817
H     -2.66184    -3.07213    -1.98973
H     -3.23294    -1.00746    -1.39402
H     -3.11189    -2.68510    -3.66107
H     -1.63443    -1.99701    -2.95797
C     -2.81238     0.22224     1.26824
O     -2.31658    -0.51770     0.15542
H     -3.56028    -0.38616     1.77253
H     -1.46886    -0.10580    -0.12296
H     -2.01993     0.47083     1.97463
H     -3.28466     1.14738     0.93111
C      5.17314     0.31207    -1.48900
O      3.82001     0.71819    -1.43602
H      5.55382     0.02196    -0.50592
H      3.36069     0.18473    -0.76904
H      5.31523    -0.53079    -2.17224
H      5.77181     1.14891    -1.84922
C      0.36329     1.88213    -0.32048
O      0.05310     0.50907    -0.53746
H      1.44044     2.02410    -0.26417
H      0.26903     0.32506    -1.49181
H     -0.01204     2.49510    -1.13798
H     -0.08000     2.21313     0.61534
