 30
-579.029354469356
C      3.40668     1.48640     0.41165
O      3.96050     0.17568     0.35763
H      2.96638     1.60744     1.40028
H      4.38754     0.06472    -0.49197
H      4.17340     2.25391     0.28613
H      2.62182     1.61929    -0.33165
C     -2.68937    -2.11079     1.14432
O     -2.33186    -0.81955     0.68998
H     -1.97575    -2.86619     0.80516
H     -1.48398    -0.56430     1.11706
H     -2.73728    -2.14368     2.23448
H     -3.67308    -2.35500     0.74887
C      1.00846    -1.16559     1.61139
O      0.09574    -0.08016     1.51408
H      0.73581    -1.75505     2.48454
H      0.36575     0.46225     0.75034
H      0.95626    -1.80352     0.72509
H      2.03032    -0.81186     1.72830
C     -0.33598     2.56494    -0.53669
O      0.23826     1.30685    -0.87564
H      0.46945     3.28367    -0.38705
H     -0.44712     0.80683    -1.36661
H     -0.98246     2.92737    -1.33688
H     -0.92312     2.49358     0.38103
C     -1.61412    -1.29297    -2.56989
O     -1.84305    -0.09720    -1.84417
H     -2.48832    -1.94556    -2.53263
H     -2.18641    -0.35672    -0.96248
H     -1.41581    -1.03652    -3.60748
H     -0.75598    -1.84074    -2.16870
