 30
-579.0429487336627
C      2.63712     1.01743     0.25267
O      2.39798    -0.27737    -0.29056
H      1.74118     1.64007     0.18263
H      1.91833    -0.78782     0.39537
H      2.93523     0.95426     1.30037
H      3.43870     1.48756    -0.31278
C     -2.11799     0.47665     2.32976
O     -1.51298    -0.11075     1.19175
H     -3.06979     0.94221     2.06563
H     -1.42497     0.58767     0.50732
H     -2.30662    -0.30282     3.06669
H     -1.46907     1.23622     2.77213
C      0.56571    -2.84375     1.54388
O      0.79132    -1.44772     1.50904
H      0.12668    -3.19161     0.60538
H     -0.07475    -0.99468     1.43255
H      1.51827    -3.34920     1.69301
H     -0.10449    -3.11386     2.36300
C     -2.01968     2.48539    -1.46022
O     -1.09236     1.72321    -0.70877
H     -2.68021     1.84127    -2.04639
H     -0.51028     1.24273    -1.33808
H     -2.62198     3.07080    -0.76798
H     -1.50325     3.16832    -2.13716
C     -0.18289    -1.16734    -2.21760
O      0.47706     0.08831    -2.13065
H     -0.52497    -1.50565    -1.23782
H      1.28366    -0.05456    -1.58790
H     -1.04654    -1.05975    -2.87297
H      0.47856    -1.92476    -2.63892
