 42
-810.6655147704749
C      1.17100     0.48744    -2.79737
O     -0.11450    -0.11581    -2.71480
H      1.86788    -0.15832    -3.33071
H     -0.00493    -0.94571    -2.19602
H      1.08003     1.41576    -3.35853
H      1.58088     0.70551    -1.81000
C      0.94211    -2.72791     2.21305
O      1.23038    -1.74396     1.23909
H     -0.02417    -2.54521     2.68854
H      1.04291    -0.86991     1.63192
H      0.91094    -3.70515     1.73240
H      1.71272    -2.74922     2.98631
C      1.35540    -3.05268    -1.80042
O      0.33949    -2.25316    -1.21410
H      2.32113    -2.84970    -1.33625
H      0.64300    -2.04964    -0.30507
H      1.12211    -4.11338    -1.68733
H      1.42389    -2.82451    -2.86419
C     -3.14961     1.23107    -2.19117
O     -1.91069     1.42815    -1.53377
H     -3.93143     1.74497    -1.63312
H     -1.23827     0.89652    -2.02294
H     -3.12015     1.64233    -3.20080
H     -3.40067     0.16995    -2.25442
C     -2.28746    -0.46005     1.09015
O     -1.83042     0.88839     1.06523
H     -1.82615    -1.05604     0.30050
H     -1.88934     1.17944     0.12671
H     -2.02970    -0.89710     2.05425
H     -3.37242    -0.50007     0.98233
C      0.39756     0.89684     3.61138
O      0.52885     0.64080     2.22362
H     -0.56497     0.54208     3.98127
H     -0.33092     0.87666     1.79639
H      1.19416     0.37763     4.14074
H      0.48193     1.96606     3.80758
C      1.14502     3.06386     0.00288
O      2.21225     2.21548     0.37765
H      0.83686     3.71700     0.82389
H      1.88551     1.63977     1.07303
H      1.48512     3.69117    -0.81969
H      0.27157     2.50128    -0.33566
