 48
-926.4810266962039
C      2.14778    -2.83689    -0.59063
O      1.75982    -2.23684    -1.81610
H      1.31482    -2.87445     0.11260
H      0.78772    -2.35512    -1.90046
H      2.50910    -3.84991    -0.76552
H      2.95772    -2.25818    -0.14409
C     -1.43344    -1.12846    -2.35484
O     -0.90144    -2.31475    -1.78176
H     -0.90665    -0.23538    -2.00776
H     -1.20940    -2.36346    -0.85526
H     -1.33386    -1.19744    -3.43643
H     -2.49173    -1.02175    -2.11434
C     -1.63119    -3.19786     1.87885
O     -1.54749    -2.25850     0.81739
H     -2.44844    -3.89880     1.70293
H     -1.84023    -1.38978     1.16698
H     -0.69473    -3.75484     1.93883
H     -1.79498    -2.68935     2.82800
C      2.47594     0.38924    -3.70963
O      2.26203     0.30518    -2.31202
H      1.53732     0.27502    -4.25829
H      2.13408    -0.64839    -2.09525
H      2.90556     1.36304    -3.94081
H      3.16823    -0.38334    -4.04411
C      0.99533     3.34296    -1.59717
O      0.56626     2.04111    -1.23660
H      1.11397     3.43100    -2.67788
H      1.18841     1.40979    -1.65987
H      0.24497     4.06140    -1.27162
H      1.94844     3.58922    -1.12258
C     -2.55943     1.05601     0.76451
O     -2.28930     0.11235     1.79467
H     -1.67630     1.24929     0.15349
H     -1.84907     0.59793     2.52139
H     -3.34825     0.65981     0.12585
H     -2.90502     1.99672     1.18801
C     -1.26957     3.05779     3.69197
O     -0.87873     1.72041     3.43876
H     -0.46667     3.61316     4.17950
H     -0.14710     1.75618     2.78425
H     -1.53328     3.57252     2.76523
H     -2.13605     3.04618     4.34929
C      1.35692     0.26647     1.33931
O      0.81092     1.57946     1.39246
H      1.85822     0.05604     2.28123
H      0.63148     1.84027     0.46498
H      0.57823    -0.48131     1.18019
H      2.09128     0.18109     0.53971
