 60
-1158.0929961458598
C      1.37465    -2.83849     2.12226
O      0.40624    -2.00163     1.50701
H      1.94309    -3.39735     1.37441
H     -0.30430    -2.59007     1.16387
H      2.06085    -2.22269     2.70064
H      0.89786    -3.54811     2.79960
C      2.35309     2.56313    -1.90016
O      2.53458     1.97570    -0.61596
H      2.51337     3.63378    -1.79546
H      2.02368     1.15017    -0.58359
H      3.08169     2.16693    -2.60775
H      1.34696     2.39377    -2.28096
C      3.63108     3.38207     2.55100
O      2.36253     3.02727     2.03472
H      3.51112     3.62135     3.60757
H      2.48085     2.70951     1.13234
H      4.34953     2.56597     2.45927
H      4.03674     4.26415     2.04525
C     -2.34955    -4.33038     1.32200
O     -1.53478    -3.51471     0.50319
H     -3.12094    -3.74307     1.82599
H     -2.11810    -3.08125    -0.15886
H     -2.83586    -5.11008     0.73379
H     -1.72392    -4.80565     2.07660
C      0.43324    -0.89946    -1.50931
O      0.75119    -0.15590    -0.32464
H      0.91742    -1.87139    -1.46875
H      0.69476    -0.78145     0.43876
H     -0.64009    -1.04677    -1.61011
H      0.78549    -0.35740    -2.38386
C     -4.47776    -2.54373    -1.41851
O     -3.14337    -2.16727    -1.12683
H     -4.91662    -1.86153    -2.14799
H     -3.17038    -1.25601    -0.76917
H     -4.46991    -3.54635    -1.84183
H     -5.09464    -2.54095    -0.51678
C     -0.56146     3.04402     0.38868
O     -0.94401     2.00854    -0.51426
H      0.32983     3.55401     0.03268
H     -0.32434     1.26698    -0.38560
H     -1.38560     3.75083     0.43488
H     -0.36876     2.64515     1.38299
C     -2.35231     0.75217    -3.64883
O     -1.13323     1.39346    -3.33396
H     -2.72322     0.13902    -2.82252
H     -1.20827     1.78325    -2.45544
H     -3.12873     1.47283    -3.92300
H     -2.17848     0.09784    -4.50350
C      3.88370    -0.26248     1.42368
O      4.76186     0.54583     0.66956
H      4.49077    -0.87037     2.09357
H      4.22547     1.13259     0.12774
H      3.18864     0.32654     2.02664
H      3.30761    -0.94078     0.78971
C     -2.59505    -0.01510     1.38864
O     -3.05482     0.24999     0.06362
H     -2.87924    -1.02918     1.66369
H     -2.53844     0.99796    -0.27913
H     -1.51238     0.06890     1.45949
H     -3.05054     0.67725     2.09814
