 36
-694.8492024082426
C      0.61440     0.89935     2.32891
O     -0.70151     0.62341     2.75222
H      0.74248     0.74980     1.25707
H     -1.29654     1.07657     2.13906
H      0.91497     1.92240     2.57119
H      1.29787     0.22320     2.84271
C      1.81559     1.92225    -1.71530
O      1.09249     0.70547    -1.80042
H      1.99584     2.19706    -0.67331
H      1.58571     0.00257    -1.32423
H      2.77120     1.84149    -2.23427
H      1.22240     2.70225    -2.18992
C      2.95126    -2.40293    -0.40675
O      2.02798    -1.32906    -0.33289
H      2.65481    -3.11901    -1.17585
H      1.17449    -1.69699    -0.01343
H      3.93348    -2.00195    -0.64953
H      3.01354    -2.92315     0.55174
C     -0.80348    -2.49570     1.65485
O     -0.41592    -2.07264     0.34735
H     -0.29018    -3.43374     1.86050
H     -0.99036    -1.35213     0.05424
H     -0.52537    -1.74880     2.39368
H     -1.87920    -2.67440     1.70209
C     -2.01785    -0.42716    -2.40813
O     -1.40242     0.16657    -1.27579
H     -1.43960    -1.28699    -2.75172
H     -0.48139     0.41845    -1.53345
H     -3.01395    -0.75939    -2.12677
H     -2.09590     0.29573    -3.22068
C     -1.53469     3.07592     0.17984
O     -2.13677     1.90085     0.69189
H     -0.56686     2.85291    -0.27111
H     -2.01454     1.22300     0.00828
H     -2.17039     3.54803    -0.57222
H     -1.38437     3.77869     0.99807
