 48
-926.4785129705854
C     -0.07658     0.08038     2.70867
O      1.06512     0.76396     2.20317
H     -0.57082    -0.50420     1.93044
H      1.61841     0.09346     1.74189
H      0.20518    -0.58466     3.52473
H     -0.78335     0.81604     3.09154
C     -1.36017     1.16430    -1.78218
O     -1.87421     1.48161    -0.48885
H     -1.20251     2.06604    -2.37101
H     -1.21035     2.02329    -0.02509
H     -0.41714     0.61910    -1.72083
H     -2.08984     0.53946    -2.29469
C     -1.07420    -3.60385     0.41606
O     -1.26646    -2.70575    -0.66792
H     -0.52947    -3.12248     1.23255
H     -1.91275    -2.02939    -0.35742
H     -2.03092    -3.96183     0.79637
H     -0.49955    -4.45983     0.06539
C     -0.54864     3.67371     1.96078
O      0.01801     2.83850     0.96381
H     -0.01403     3.56327     2.90316
H      0.51132     2.11428     1.41868
H     -0.48590     4.70815     1.63483
H     -1.59697     3.41316     2.12132
C     -4.24917    -0.88777    -0.26551
O     -2.92459    -0.85041     0.24425
H     -4.96966    -0.82625     0.55142
H     -2.58218     0.05618     0.08981
H     -4.42603    -0.06207    -0.95454
H     -4.40440    -1.82818    -0.79584
C      1.68993    -2.56619    -2.40340
O      1.10386    -1.77695    -1.38476
H      2.59263    -2.06830    -2.75304
H      0.20186    -2.12912    -1.21492
H      1.95690    -3.55957    -2.03287
H      1.01129    -2.67771    -3.24938
C      2.32220     1.86428    -1.30312
O      1.36450     2.87434    -1.53432
H      1.86032     0.88110    -1.18675
H      0.91494     3.03789    -0.69824
H      2.98583     1.82873    -2.16757
H      2.93767     2.06093    -0.41937
C      3.77163    -1.08768     0.58083
O      2.38186    -1.08423     0.84523
H      4.11858    -2.09049     0.32433
H      1.91946    -1.36960     0.02685
H      4.02313    -0.41544    -0.24250
H      4.29737    -0.75732     1.47533
