 60
-1158.0952221612088
C      3.88097     0.49560    -1.27713
O      2.89162     0.84914    -2.22695
H      3.44033     0.17798    -0.32965
H      2.46881     1.67827    -1.91617
H      4.47245    -0.32488    -1.68168
H      4.55444     1.33060    -1.08009
C     -0.54254     2.23321     2.75974
O     -0.38081     0.89451     3.19603
H     -0.63881     2.30347     1.67500
H      0.41940     0.54222     2.75450
H     -1.44264     2.63881     3.21761
H      0.30316     2.85054     3.07286
C      0.01830    -0.69762    -3.12101
O      1.17150    -1.18889    -2.45238
H     -0.54077     0.00270    -2.49797
H      1.83677    -0.46420    -2.47234
H      0.29076    -0.20442    -4.05437
H     -0.62398    -1.54255    -3.36739
C     -3.52248     0.03675    -0.96796
O     -2.33396     0.32954    -0.25137
H     -4.34496     0.67154    -0.63183
H     -2.43921     0.00620     0.67290
H     -3.35090     0.22559    -2.02902
H     -3.80585    -1.00723    -0.84917
C      1.91280    -3.14754     0.10350
O      1.13956    -1.96133     0.07972
H      2.01578    -3.48449     1.13500
H      1.06602    -1.69031    -0.86754
H      1.42803    -3.93848    -0.46988
H      2.90926    -2.98239    -0.30994
C     -2.02728    -1.90468     2.41994
O     -2.43645    -0.55220     2.26456
H     -1.96621    -2.16638     3.47764
H     -1.77064    -0.00564     2.73481
H     -2.75945    -2.55422     1.94645
H     -1.05101    -2.08168     1.96261
C     -1.76701    -3.09692    -0.89630
O     -3.14126    -3.28733    -0.56742
H     -1.11485    -3.59198    -0.17799
H     -3.35323    -4.21813    -0.64677
H     -1.53983    -3.47693    -1.89441
H     -1.55055    -2.03396    -0.87138
C      2.67093    -0.78617     2.68635
O      1.72834    -0.10875     1.88057
H      3.35454    -1.37922     2.07681
H      1.45397    -0.73596     1.18316
H      3.25267    -0.05330     3.24153
H      2.17271    -1.45336     3.39443
C      2.04602     3.25603     0.15718
O      1.66885     3.00016    -1.18525
H      1.94308     2.36950     0.78811
H      0.70120     2.84808    -1.17368
H      3.08634     3.57725     0.16858
H      1.44428     4.06039     0.58573
C     -1.91642     3.32401    -1.50250
O     -0.91028     2.42677    -1.07123
H     -1.97577     3.34193    -2.59341
H     -1.35530     1.62134    -0.74210
H     -2.88997     3.03645    -1.10723
H     -1.68178     4.32994    -1.15004
