 36
-694.8448300867766
C      1.58722     2.23976    -0.96114
O      0.54253     1.52363    -0.32474
H      1.42845     3.30301    -0.78663
H      0.67966     0.56563    -0.48266
H      2.55709     1.95845    -0.54512
H      1.59235     2.05136    -2.03585
C      0.91575    -1.81368    -1.93177
O      0.87609    -1.10088    -0.70570
H      1.38005    -1.19442    -2.69524
H      0.44508    -1.68326    -0.04043
H      1.49742    -2.73088    -1.82472
H     -0.09188    -2.07731    -2.26040
C      1.45071    -0.39568     2.97506
O      0.03908    -0.59893     2.96409
H      1.86663    -0.50649     1.97105
H     -0.36173     0.25027     2.68133
H      1.69384     0.60071     3.34367
H      1.90332    -1.13812     3.62974
C     -0.84048     1.22172    -3.62090
O      0.47039     0.93011    -4.09810
H     -1.23801     2.13853    -4.06264
H      0.45106     0.90182    -5.05526
H     -1.53089     0.39821    -3.82137
H     -0.77048     1.35635    -2.54707
C     -1.75926    -2.70140     0.99219
O     -0.36395    -2.52701     1.16867
H     -1.92285    -3.51967     0.29398
H     -0.24911    -1.93673     1.94625
H     -2.24300    -2.94414     1.93867
H     -2.21780    -1.79348     0.59046
C     -2.17226     1.86308     1.66058
O     -0.79978     1.75617     1.99083
H     -2.50912     0.98502     1.10204
H     -0.29287     1.80644     1.15491
H     -2.74789     1.93659     2.58105
H     -2.36063     2.75250     1.05686
