 36
-694.8458510558291
C     -2.92805     2.75035    -1.85019
O     -2.16128     1.56545    -1.71549
H     -3.99604     2.52349    -1.85840
H     -2.58425     1.01592    -1.02312
H     -2.72336     3.44508    -1.03233
H     -2.66619     3.22534    -2.79270
C      4.45751    -2.13545     0.46848
O      3.27881    -1.48286     0.03511
H      4.83655    -2.73710    -0.35799
H      2.83281    -1.10470     0.80455
H      5.23196    -1.41865     0.75759
H      4.26654    -2.79830     1.31750
C      1.57259     0.96951     2.27439
O      1.68979    -0.44753     2.23340
H      2.54821     1.37777     2.52749
H      0.84496    -0.78747     1.91067
H      1.25880     1.36231     1.30558
H      0.85206     1.27886     3.03456
C      1.22191     0.49190    -2.38211
O      0.39006     0.80158    -1.26875
H      2.06185    -0.10247    -2.02675
H     -0.45803     1.17924    -1.58070
H      0.67119    -0.07693    -3.13427
H      1.60312     1.40556    -2.84051
C     -3.17942     0.83788     1.52350
O     -2.96351     0.05178     0.36169
H     -3.24082     0.21231     2.41407
H     -2.15760    -0.47613     0.51711
H     -2.37828     1.56860     1.66411
H     -4.12233     1.36765     1.40630
C     -0.35817    -2.26353    -0.19933
O     -0.46440    -1.00176     0.45034
H     -0.79962    -3.01824     0.44647
H     -0.05362    -0.33641    -0.15580
H     -0.89507    -2.25842    -1.14986
H      0.68708    -2.51055    -0.38056
