 60
-1158.1041078479543
C      3.54831     1.41314     1.65115
O      3.28876     0.65791     0.47746
H      4.51669     1.14163     2.07935
H      2.67028    -0.05073     0.69498
H      3.57669     2.47174     1.39413
H      2.78201     1.27168     2.41561
C     -1.77657     3.89186    -1.05659
O     -1.54550     2.71221    -1.81195
H     -1.73614     4.76854    -1.70433
H     -0.60571     2.46857    -1.67831
H     -2.76848     3.84332    -0.60311
H     -1.03276     4.00373    -0.26592
C      3.64372    -2.86478    -0.79312
O      2.23970    -2.98694    -0.67143
H      4.01556    -1.94705    -0.32937
H      1.83057    -2.18113    -1.03356
H      4.10822    -3.71286    -0.28698
H      3.96331    -2.87814    -1.83898
C     -3.59197     0.20093    -2.70252
O     -3.31146     0.76273    -1.42839
H     -2.69742    -0.26976    -3.11614
H     -2.68392     1.50383    -1.57977
H     -4.37086    -0.55365    -2.59662
H     -3.94180     0.96576    -3.39683
C      2.14872    -1.85523     2.50706
O      1.22040    -1.01311     1.82637
H      3.00951    -1.26364     2.81650
H      0.46381    -1.58604     1.55430
H      1.69369    -2.28933     3.39819
H      2.48075    -2.65281     1.84481
C     -0.65757    -3.73007     0.54171
O     -0.86903    -2.52381     1.27215
H     -0.58191    -3.53296    -0.52736
H     -1.68353    -2.09996     0.93118
H      0.27635    -4.18371     0.86663
H     -1.47166    -4.43481     0.72207
C     -1.16085     1.39857     1.76193
O      0.22771     1.48962     1.46275
H     -1.44893     0.37244     1.98953
H      0.63924     0.64043     1.71582
H     -1.39859     2.02693     2.62161
H     -1.76413     1.73646     0.91919
C     -0.25939    -0.61109    -1.34467
O      1.12863    -0.71095    -1.63287
H     -0.72648    -1.58026    -1.49480
H      1.51885     0.17325    -1.59089
H     -0.42964    -0.32402    -0.31172
H     -0.73786     0.12648    -1.98481
C      2.02686     3.10305    -1.22194
O      0.94869     2.18940    -1.07596
H      2.97258     2.58365    -1.08804
H      0.83278     1.99817    -0.12210
H      1.98020     3.52364    -2.22391
H      1.94243     3.91197    -0.49289
C     -4.06875    -1.05048     1.28831
O     -2.98824    -1.17988     0.37571
H     -3.99980    -1.84688     2.02920
H     -3.08132    -0.45463    -0.27839
H     -4.03701    -0.08735     1.80423
H     -5.02767    -1.13762     0.77468
