 48
-926.4775291918244
C      0.73984     1.58416     2.60818
O      1.34750     1.18746     1.38871
H      1.51200     1.83633     3.33788
H      0.90495     1.61776     0.65213
H      0.09875     2.45923     2.47596
H      0.13225     0.77620     3.01603
C      1.00923     3.42136    -1.58969
O      0.15670     2.42320    -1.05591
H      0.94404     4.30456    -0.96076
H      0.28809     1.61732    -1.61487
H      2.04270     3.06931    -1.60684
H      0.70890     3.68069    -2.60523
C     -2.87594     1.33685    -0.99196
O     -2.21359     1.90903     0.13274
H     -3.45949     2.09385    -1.51571
H     -1.36978     2.26255    -0.20070
H     -2.15966     0.89902    -1.68895
H     -3.54932     0.55333    -0.64757
C      3.40648    -0.67197    -0.69506
O      2.23835    -1.32594    -1.17495
H      3.17423    -0.04330     0.16284
H      1.91102    -1.91033    -0.45074
H      4.16700    -1.40167    -0.41565
H      3.81349    -0.04938    -1.49267
C     -1.67644    -2.34537    -0.63741
O     -1.33076    -2.44598     0.73518
H     -1.47660    -3.30276    -1.11395
H     -1.59879    -1.60808     1.16687
H     -2.73953    -2.12663    -0.75722
H     -1.09825    -1.57203    -1.14746
C      1.70113    -2.29465     2.14352
O      1.30953    -2.76483     0.86029
H      2.75243    -2.53303     2.29650
H      0.32626    -2.76128     0.84843
H      1.55981    -1.21610     2.22276
H      1.12834    -2.78999     2.92833
C     -3.32028    -0.21171     2.53183
O     -2.07238    -0.14461     1.86891
H     -4.13057    -0.42962     1.83102
H     -2.06902     0.65462     1.30039
H     -3.28039    -1.00878     3.27203
H     -3.54645     0.72462     3.04407
C      0.85367     0.21024    -3.82231
O      0.56276     0.25660    -2.43707
H      0.09127     0.77282    -4.35932
H      1.18294    -0.36321    -1.97390
H      1.83227     0.64590    -4.03832
H      0.84263    -0.81756    -4.18427
