 36
-694.8556079949792
C     -1.60488     1.69139    -0.82981
O     -1.87732     0.38157    -1.32325
H     -2.15379     1.84262     0.09930
H     -1.09738     0.13793    -1.86682
H     -0.53885     1.81642    -0.63471
H     -1.93127     2.44144    -1.55106
C      3.54354     1.34729    -1.17825
O      2.20050     1.01994    -0.88209
H      3.55439     2.02778    -2.02854
H      2.17102     0.58139     0.00088
H      4.01870     1.84422    -0.33137
H      4.12330     0.45537    -1.43158
C      1.60820    -1.69350     0.84191
O      1.87576    -0.37914     1.32610
H      0.54230    -1.82481     0.65044
H      1.09395    -0.13333     1.86596
H      2.15545    -1.84840    -0.08759
H      1.93988    -2.43696     1.56762
C     -3.53787    -1.36113     1.17649
O     -2.19572    -1.03435     0.87590
H     -3.54586    -2.04626     2.02305
H     -2.16947    -0.59086    -0.00470
H     -4.11492    -0.46965     1.43763
H     -4.01786    -1.85247     0.32910
C      0.58530     0.61585    -3.84739
O      0.43379    -0.03048    -2.59820
H     -0.22483     0.30298    -4.50424
H      1.12794     0.32689    -2.00505
H      0.55270     1.70317    -3.73944
H      1.53395     0.34374    -4.31429
C     -0.59653    -0.59254     3.84698
O     -0.44036     0.03835     2.59062
H      0.20800    -0.26720     4.50460
H     -1.13016    -0.32904     1.99846
H     -1.54946    -0.31924     4.30441
H     -0.55800    -1.68099     3.75310
