 36
-694.8530672586252
C     -0.94066     2.92754    -0.65549
O     -0.21414     1.71966    -0.78987
H     -1.34051     3.24073    -1.62114
H     -0.86557     0.98044    -0.89167
H     -1.76524     2.80837     0.04924
H     -0.26768     3.69642    -0.28202
C      2.38085     1.48260    -3.60822
O      1.55072     0.60131    -2.86953
H      3.09054     2.00844    -2.96134
H      1.04176     1.11474    -2.22893
H      2.94638     0.88637    -4.32377
H      1.79726     2.22408    -4.16238
C     -1.00848    -3.18756     1.21531
O     -1.40884    -1.83079     1.27637
H     -1.36949    -3.62295     0.28337
H     -0.93633    -1.40247     2.02506
H      0.07907    -3.28376     1.24492
H     -1.43081    -3.75481     2.04577
C      1.98455    -0.54048     0.38672
O      1.41919     0.56438     1.08847
H      2.54674    -0.21059    -0.48453
H      0.88341     1.07683     0.45828
H      2.66492    -1.05614     1.06357
H      1.21379    -1.24051     0.06184
C     -1.40624    -1.24580    -2.05433
O     -1.70890    -0.41527    -0.94285
H     -0.35563    -1.54283    -2.05445
H     -1.63581    -0.95667    -0.12376
H     -2.02842    -2.14151    -2.05111
H     -1.60784    -0.69479    -2.97082
C     -0.67066     0.56220     3.75038
O      0.01352    -0.49389     3.09448
H      0.02761     1.33737     4.06756
H      0.64147    -0.07460     2.46774
H     -1.41720     1.01549     3.09309
H     -1.16771     0.16023     4.62948
