 42
-810.6678000256954
C     -1.64329    -1.03407     1.51229
O     -0.62995    -0.08766     1.84699
H     -1.18062    -1.98505     1.24802
H     -0.89270     0.78068     1.49658
H     -2.30297    -1.19551     2.36715
H     -2.24033    -0.69519     0.66575
C     -2.95665     2.31541     0.66441
O     -1.55266     2.16603     0.52179
H     -3.24134     2.10077     1.69342
H     -1.38238     1.79828    -0.38299
H     -3.25721     3.33411     0.42214
H     -3.47577     1.62433     0.00163
C      1.85973    -3.09067    -1.60239
O      0.82034    -2.76940    -0.69971
H      1.49171    -3.82357    -2.31862
H      1.21787    -2.24378     0.02964
H      2.18881    -2.19992    -2.14640
H      2.71807    -3.51771    -1.08188
C      2.78315    -0.23581     1.20841
O      1.72319    -1.18143     1.21789
H      3.56331    -0.59527     0.53902
H      0.91998    -0.73599     1.56004
H      2.44600     0.74664     0.87336
H      3.21195    -0.14381     2.20715
C     -1.29629    -2.05082    -3.13601
O     -1.38273    -1.67114    -1.77052
H     -1.91668    -2.92646    -3.33298
H     -0.64921    -2.12416    -1.30547
H     -1.64598    -1.23104    -3.76483
H     -0.26529    -2.27857    -3.40819
C      0.51284     0.97762    -1.72282
O     -0.91399     0.96362    -1.69757
H      0.86769     1.90007    -1.26654
H     -1.18796     0.02104    -1.72141
H      0.93466     0.14078    -1.16602
H      0.87340     0.93804    -2.75051
C      1.19850     2.75874     2.61730
O      1.07907     3.03801     1.23578
H      1.16242     1.68416     2.81326
H      0.14526     2.98125     1.00431
H      2.16139     3.13570     2.96212
H      0.41039     3.24221     3.20164
