 36
-694.8478664609397
C     -0.26912     1.58924    -1.87539
O      0.45953     0.47606    -1.37525
H     -0.42792     1.43116    -2.94026
H      0.38788     0.46892    -0.40701
H     -1.23445     1.69089    -1.38279
H      0.28896     2.51737    -1.74659
C      2.48161     2.53161     0.53687
O      2.05650     1.58692     1.50669
H      3.50098     2.82693     0.77613
H      1.08897     1.54515     1.48351
H      2.47071     2.09915    -0.46528
H      1.85189     3.42513     0.54731
C      2.82430    -1.58280    -0.39346
O      2.12619    -1.32925     0.81643
H      2.43357    -2.50686    -0.81949
H      2.31459    -0.42816     1.10981
H      2.67204    -0.78272    -1.11976
H      3.89417    -1.71385    -0.21642
C     -0.64744    -2.81166    -0.89577
O     -1.18295    -1.72786    -1.65106
H     -1.46704    -3.31321    -0.38266
H     -0.47708    -1.06752    -1.76696
H     -0.17324    -3.53436    -1.56263
H      0.07966    -2.46362    -0.16276
C     -3.71043     0.50682    -0.61165
O     -2.65037    -0.19329     0.02124
H     -3.67863     1.55257    -0.30224
H     -2.26097    -0.83684    -0.61241
H     -3.62401     0.46101    -1.69938
H     -4.67206     0.08715    -0.31590
C     -0.52874    -0.10578     2.48699
O     -0.55583     0.76550     1.34495
H      0.08638     0.34983     3.26018
H     -1.38714     0.53785     0.86939
H     -1.53849    -0.24867     2.87117
H     -0.10368    -1.06850     2.20614
