 24
-463.2293343947885
C     -0.78863     2.61965     0.08206
O     -0.39782     1.61293     0.99947
H     -0.00134     3.36571    -0.03771
H      0.48593     1.29690     0.72336
H     -1.01782     2.19760    -0.90106
H     -1.67741     3.11082     0.46970
C      2.62181     0.90276    -1.13831
O      1.80848     0.47069    -0.06391
H      3.22562     1.73994    -0.79549
H      1.39198    -0.37933    -0.32204
H      3.28960     0.10606    -1.47291
H      2.01627     1.22811    -1.98841
C     -1.79382    -1.34033     2.07235
O     -1.72854    -0.73706     0.78815
H     -2.45645    -0.77827     2.73166
H     -1.40063     0.17788     0.91180
H     -2.19013    -2.34687     1.95524
H     -0.80555    -1.39957     2.53506
C     -0.06938    -1.74754    -2.05858
O      0.31789    -1.66439    -0.69841
H     -0.78437    -2.55604    -2.21256
H     -0.49240    -1.48217    -0.17532
H     -0.51967    -0.81159    -2.40077
H      0.81691    -1.95020    -2.65744
