 24
-463.22927945458497
C      1.47036     1.23454     2.18661
O      0.40124     1.40234     1.27020
H      2.00434     0.29765     2.00759
H      0.78949     1.39851     0.36831
H      2.17714     2.06149     2.11343
H      1.05798     1.22002     3.19358
C      0.12378     1.61337    -2.03054
O      1.12991     0.96115    -1.26284
H     -0.20510     2.50853    -1.50106
H      0.96692     0.00237    -1.35772
H      0.52191     1.91228    -3.00131
H     -0.73180     0.95377    -2.17541
C     -1.38418    -1.40361     2.24441
O     -1.12420    -0.79407     0.99106
H     -2.10986    -2.20157     2.09858
H     -0.66594     0.05606     1.16034
H     -0.47298    -1.82734     2.67493
H     -1.79933    -0.68216     2.95239
C     -0.69750    -2.01157    -2.32965
O      0.15755    -1.56435    -1.29089
H     -0.25734    -1.73012    -3.28559
H     -0.37253    -1.45999    -0.47725
H     -0.80962    -3.09724    -2.30134
H     -1.68470    -1.55141    -2.24746
