 24
-463.2307051069292
C      2.38070     0.66792     1.41304
O      1.80973     0.56541     0.11865
H      3.24455     0.00899     1.51024
H      1.49778    -0.35880     0.00766
H      2.70818     1.69490     1.56225
H      1.65514     0.41175     2.19005
C     -0.66803     2.37946    -1.41327
O     -0.56535     1.80957    -0.11840
H     -1.69520     2.70617    -1.56289
H      0.35890     1.49780    -0.00723
H     -0.00963     3.24364    -1.51108
H     -0.41132     1.65348    -2.18971
C     -2.38083    -0.66801     1.41282
O     -1.80977    -0.56541     0.11847
H     -1.65530    -0.41196     2.18990
H     -1.49782     0.35881     0.00757
H     -3.24465    -0.00905     1.51004
H     -2.70837    -1.69499     1.56191
C      0.66817    -2.37942    -1.41331
O      0.56538    -1.80952    -0.11845
H      0.00975    -3.24357    -1.51117
H     -0.35890    -1.49780    -0.00733
H      0.41156    -1.65343    -2.18978
H      1.69534    -2.70615    -1.56283
