 42
-810.6632913275771
C     -1.86452     0.17199     2.48986
O     -0.94301    -0.86341     2.16781
H     -2.79761    -0.28896     2.80758
H     -0.06004    -0.45458     2.09162
H     -1.48814     0.78229     3.31214
H     -2.05330     0.81829     1.62977
C      0.20877     3.11695    -0.26997
O      1.01460     1.95731    -0.44419
H     -0.78021     2.85892     0.10845
H      0.57187     1.36789    -1.09061
H      0.70277     3.77687     0.44281
H      0.09530     3.65049    -1.21441
C     -0.60586    -3.11628    -0.37824
O     -1.08510    -1.77706    -0.32263
H      0.47660    -3.14427    -0.25878
H     -1.12513    -1.49739     0.62266
H     -1.06952    -3.72300     0.39991
H     -0.86752    -3.53731    -1.34731
C      2.30808     0.89665     2.56804
O      1.39190     0.36473     1.63026
H      2.45877     0.16237     3.35619
H      1.27073     1.01578     0.89554
H      3.26677     1.10756     2.09254
H      1.92183     1.81789     3.00875
C      0.44614    -0.44565    -3.01303
O     -0.25833     0.09669    -1.90840
H      1.29485    -1.03345    -2.66849
H     -0.52110    -0.66042    -1.32328
H     -0.20947    -1.07714    -3.61333
H      0.79809     0.37360    -3.63822
C      3.44256    -0.72846    -0.87705
O      2.42663    -1.58412    -0.38170
H      3.05456     0.25779    -1.14387
H      2.03347    -1.17109     0.39501
H      4.24927    -0.59987    -0.15105
H      3.86572    -1.18548    -1.77219
C     -3.72583     0.57020    -0.73972
O     -2.63717     1.47128    -0.86715
H     -3.39390    -0.42346    -0.43307
H     -1.93211     1.03853    -1.36297
H     -4.39933     0.95901     0.02501
H     -4.28213     0.48603    -1.67679
