 48
-926.4804077644934
C      0.07843    -3.12401     2.41934
O      0.64158    -2.79552     1.15947
H     -0.97501    -2.84470     2.45600
H     -0.07691    -2.91971     0.49626
H      0.16695    -4.19397     2.60827
H      0.61715    -2.58910     3.20260
C      1.65262     1.45799    -1.90989
O      0.42918     2.14467    -2.12338
H      2.09838     1.22912    -2.87674
H      0.25274     2.64932    -1.30003
H      2.34843     2.07634    -1.34425
H      1.50527     0.52419    -1.36062
C     -1.71183     0.21881     0.57729
O     -2.42483    -0.51507    -0.41262
H     -1.97372     1.27588     0.56831
H     -2.24341    -0.08680    -1.27977
H     -1.97298    -0.19253     1.55370
H     -0.63057     0.13354     0.44615
C     -1.00694    -0.59016    -3.44432
O     -1.58540     0.49436    -2.73761
H     -0.21029    -1.07012    -2.86890
H     -0.87315     1.15162    -2.57709
H     -1.77922    -1.33055    -3.64447
H     -0.59376    -0.25742    -4.39693
C     -2.49512    -3.93820    -0.06084
O     -1.47488    -3.01426    -0.39630
H     -3.24658    -3.99028    -0.84961
H     -1.89435    -2.12410    -0.44261
H     -2.05089    -4.92426     0.06150
H     -2.99068    -3.65380     0.87072
C      0.77460     1.59610     3.19521
O      1.44759     1.80535     1.96609
H      0.44765     2.55878     3.58717
H      1.74092     0.92974     1.63780
H     -0.10213     0.95992     3.05692
H      1.43359     1.12771     3.92769
C      0.49737     4.69064     0.35012
O      0.14247     3.32593     0.21413
H      0.04610     5.12105     1.24729
H      0.63512     2.81943     0.89550
H      1.58157     4.81443     0.40789
H      0.12813     5.23572    -0.51727
C      3.25224    -0.97274     0.36455
O      2.06208    -0.57967     1.02991
H      3.96414    -1.40601     1.06814
H      1.51006    -1.39126     1.11476
H      3.03296    -1.70783    -0.41080
H      3.70734    -0.09995    -0.10533
