 36
-694.8557665682088
C     -0.03756     1.99806    -1.74097
O     -0.58222     0.78031    -2.22037
H      0.63655     2.39223    -2.50277
H     -1.18037     0.43371    -1.54766
H     -0.81925     2.74438    -1.57098
H      0.53002     1.86866    -0.81557
C      2.54809     0.38246     2.58885
O      1.77854     0.84695     1.48889
H      2.04826     0.65389     3.52028
H      1.89744     0.19195     0.75969
H      2.65578    -0.70163     2.54979
H      3.53936     0.83870     2.57797
C      2.50923    -0.63620    -1.64226
O      2.02224    -1.02022    -0.36706
H      3.33090     0.06542    -1.49839
H      1.22172    -1.57174    -0.50171
H      2.89888    -1.50073    -2.18304
H      1.72876    -0.16099    -2.23347
C     -0.60308    -2.65199    -2.08482
O     -0.28907    -2.30385    -0.74437
H     -0.53638    -1.78503    -2.74363
H     -0.97010    -1.68509    -0.42643
H      0.10991    -3.40492    -2.41535
H     -1.60682    -3.07664    -2.15546
C     -3.35424    -0.44304     0.39598
O     -1.97696    -0.31799     0.09253
H     -3.76887    -1.26161    -0.18965
H     -1.55471     0.23221     0.80173
H     -3.49680    -0.65723     1.45549
H     -3.88343     0.47863     0.14622
C     -1.14701     2.51044     2.11770
O     -0.81516     1.14836     1.90981
H     -0.85577     3.12269     1.26129
H      0.16714     1.08915     1.82862
H     -2.22338     2.59212     2.25939
H     -0.64885     2.89838     3.00741
