 42
-810.6650869351244
C     -4.12806     0.55697     1.33033
O     -2.94601    -0.14385     1.01892
H     -4.87017    -0.15908     1.68219
H     -2.30420     0.50417     0.69168
H     -3.96824     1.29775     2.12045
H     -4.53594     1.07196     0.45549
C      0.42310    -1.14714     2.59090
O      1.40729    -1.34337     1.58715
H      0.25221    -2.07048     3.14518
H      1.00625    -1.92785     0.90320
H      0.78885    -0.40183     3.29875
H     -0.52601    -0.80797     2.17534
C     -1.09091    -3.28267     0.00741
O      0.17777    -2.73552    -0.31599
H     -0.96702    -3.97844     0.83565
H      0.06965    -2.19755    -1.12485
H     -1.79752    -2.50414     0.29893
H     -1.50261    -3.83817    -0.83610
C      1.84436     2.00819    -2.58690
O      1.12845     1.29889    -1.59095
H      2.17603     2.97275    -2.19913
H      1.74939     1.12076    -0.83901
H      2.71321     1.43552    -2.91229
H      1.18443     2.17462    -3.43588
C     -1.53681    -0.62559    -2.55391
O     -0.17970    -0.99258    -2.35515
H     -1.61874     0.22232    -3.23636
H      0.32092    -0.17903    -2.17590
H     -2.05741    -1.47021    -3.00063
H     -2.02658    -0.37005    -1.61402
C      3.36952     1.46176     1.43012
O      2.59959     0.73675     0.49236
H      2.79649     1.65757     2.33953
H      2.22336    -0.05570     0.95026
H      4.27497     0.91559     1.69737
H      3.65527     2.41493     0.98592
C     -0.38853     2.35771     1.11376
O     -1.11123     1.67078     0.10216
H      0.17465     1.66378     1.73486
H     -0.51830     1.55809    -0.65525
H      0.30824     3.07606     0.68077
H     -1.09676     2.89459     1.74159
