 60
-1158.0980495788522
C      2.19212    -3.97666    -3.06124
O      2.08927    -3.02813    -2.01813
H      3.22404    -4.30897    -3.20595
H      2.60073    -2.24543    -2.28540
H      1.58517    -4.84279    -2.79929
H      1.82485    -3.57515    -4.01102
C      0.93318     3.95692    -0.86793
O      0.59975     2.59304    -0.70224
H      0.43671     4.36525    -1.74682
H     -0.37198     2.53131    -0.49449
H      0.63987     4.53649     0.00762
H      2.01049     4.04035    -0.99902
C      4.28409    -0.15181    -1.90205
O      3.34885    -0.71660    -2.80498
H      4.52033     0.87868    -2.17718
H      2.62518    -0.06849    -2.90843
H      3.90820    -0.16319    -0.87659
H      5.19927    -0.73739    -1.94681
C      0.07273     0.08884    -2.78033
O      1.21857     0.93454    -2.76567
H     -0.32216     0.04422    -3.79353
H      1.08070     1.58934    -2.06356
H      0.33851    -0.92181    -2.46982
H     -0.71161     0.45048    -2.11361
C      2.16538     2.09003     2.10798
O      2.15512     1.17654     1.02370
H      2.39512     3.10240     1.77050
H      1.65125     1.60221     0.30755
H      1.19889     2.11283     2.61957
H      2.92827     1.77688     2.81776
C     -3.38333    -2.44477     2.10292
O     -3.28140    -1.03725     1.97353
H     -3.86342    -2.85480     1.21392
H     -2.55022    -0.74924     2.56618
H     -2.40139    -2.90260     2.21773
H     -3.99046    -2.70507     2.97104
C     -4.16371    -0.20667    -1.21848
O     -2.95619    -0.05796    -0.48629
H     -3.94079    -0.62169    -2.20098
H     -3.09109    -0.46647     0.39750
H     -4.84598    -0.88130    -0.70067
H     -4.65642     0.76049    -1.34679
C     -1.00554    -1.15928     4.65667
O     -1.17443    -0.41576     3.46245
H     -0.82019    -2.21468     4.44200
H     -0.37978    -0.60479     2.90484
H     -0.16818    -0.77389     5.24007
H     -1.91166    -1.08165     5.25596
C      0.34413    -1.69513     0.68100
O      0.80938    -1.00046     1.83912
H     -0.02499    -2.66990     0.99457
H      1.39642    -0.27669     1.53635
H     -0.46829    -1.15970     0.18358
H      1.14319    -1.85812    -0.03628
C     -2.26914     2.59700     1.24168
O     -1.90661     2.35252    -0.11753
H     -2.19263     3.66507     1.43925
H     -2.30113     1.48038    -0.34685
H     -3.29553     2.28217     1.41737
H     -1.61236     2.05666     1.92772
