 60
-1158.0990326961257
C     -0.29946    -3.51272    -1.19445
O     -1.30398    -2.53065    -0.99709
H     -0.30694    -3.82567    -2.23746
H     -1.42419    -2.40304    -0.02968
H      0.68447    -3.11495    -0.95299
H     -0.48958    -4.39102    -0.57587
C      1.92149     0.32555    -1.76459
O      1.19311     0.63327    -2.93560
H      1.51237     0.83701    -0.89136
H      0.33861     0.18874    -2.87261
H      1.94713    -0.74287    -1.54989
H      2.94976     0.65792    -1.90501
C      1.12612     3.62594    -1.23015
O      0.11003     2.99936    -0.46169
H      0.82411     4.63571    -1.51625
H     -0.56709     2.64602    -1.07577
H      2.02432     3.70396    -0.61711
H      1.35351     3.04622    -2.12318
C     -1.75813     2.60732    -3.32706
O     -1.80391     1.97409    -2.05945
H     -0.84678     2.34676    -3.86883
H     -1.70937     1.01368    -2.21793
H     -2.62391     2.33362    -3.93297
H     -1.78114     3.68700    -3.18419
C      3.14548     1.62091     1.58842
O      3.67843     0.33206     1.79537
H      2.14205     1.60631     1.15709
H      3.14962    -0.30528     1.30544
H      3.10160     2.14672     2.54289
H      3.79902     2.19423     0.92587
C     -1.95123    -3.19834     2.52787
O     -1.66136    -2.18578     1.58592
H     -1.05331    -3.77251     2.77313
H     -1.18137    -1.46930     2.04449
H     -2.35448    -2.77611     3.44929
H     -2.69327    -3.87360     2.10582
C     -1.73515    -1.09068    -3.89610
O     -1.31057    -0.55997    -2.65334
H     -2.65990    -1.65399    -3.77979
H     -1.31377    -1.29988    -1.98840
H     -1.91071    -0.27011    -4.59032
H     -0.96950    -1.74535    -4.31526
C      0.60860    -0.24700     3.80649
O     -0.10245    -0.27774     2.57317
H      0.11637     0.42067     4.50997
H     -0.30483     0.66765     2.32034
H      0.61516    -1.24885     4.23200
H      1.63422     0.08258     3.65095
C      1.77504    -2.91594     1.63127
O      1.66521    -1.69198     0.92629
H      0.81764    -3.43540     1.68572
H      0.97671    -1.17059     1.36940
H      2.47874    -3.55467     1.09935
H      2.15538    -2.76827     2.64301
C     -2.08796     2.39404     1.75687
O     -0.68925     2.13493     1.91344
H     -2.31211     3.41345     2.06712
H     -0.26391     2.49322     1.10428
H     -2.38487     2.25624     0.71743
H     -2.64134     1.69778     2.38543
