 54
-1042.2822560064878
C      1.21257    -1.63520    -2.69781
O     -0.12621    -1.18458    -2.51100
H      1.19139    -2.70862    -2.88948
H     -0.08272    -0.26953    -2.17127
H      1.66604    -1.14377    -3.55976
H      1.81163    -1.44717    -1.80992
C     -0.64117     4.69668     1.95206
O      0.39195     3.89690     1.40685
H     -0.43362     5.73921     1.71806
H      0.18863     2.96273     1.62981
H     -1.61359     4.42610     1.53162
H     -0.68672     4.58550     3.03529
C     -2.44806    -3.56768    -1.88600
O     -1.93045    -2.49616    -1.12218
H     -2.85273    -3.21282    -2.83598
H     -1.24052    -2.05494    -1.66943
H     -1.67110    -4.30751    -2.09832
H     -3.24496    -4.05260    -1.32417
C      0.94170    -4.18789     0.58554
O      1.09840    -3.12312     1.51027
H      0.12372    -3.98237    -0.10459
H      0.20201    -2.77138     1.67645
H      1.86396    -4.30062     0.01364
H      0.74299    -5.12349     1.10951
C      3.96941    -1.24421     1.14986
O      2.78290    -1.30786     0.38651
H      3.78261    -0.88256     2.16645
H      2.19689    -1.95111     0.82477
H      4.45751    -2.22061     1.22322
H      4.65569    -0.55289     0.66180
C     -2.22768    -1.19264     2.15331
O     -1.38380    -2.14437     1.52371
H     -1.67461    -0.70681     2.95338
H     -1.69222    -2.28160     0.60927
H     -2.54832    -0.42710     1.44523
H     -3.10904    -1.67961     2.57682
C     -0.09067     4.87277    -1.86493
O      0.47325     3.73059    -1.24815
H      0.46858     5.77254    -1.60261
H      0.53087     3.90265    -0.28092
H     -0.04425     4.74084    -2.94370
H     -1.13372     5.01258    -1.56950
C      0.78357     0.56162     2.20400
O     -0.27089     1.30940     1.59924
H      0.81666     0.84147     3.25520
H     -0.37692     1.00505     0.68647
H      0.59504    -0.50710     2.12632
H      1.74565     0.78667     1.74819
C     -1.83999     1.40179    -1.51786
O     -0.43350     1.24475    -1.36283
H     -2.06966     1.79208    -2.50973
H     -0.03448     2.14473    -1.40714
H     -2.30782     0.42464    -1.40333
H     -2.25925     2.07915    -0.77041
