 60
-1158.0929177228536
C      0.66140    -1.83369    -3.78817
O      0.58395    -1.89231    -2.37670
H      0.28193    -0.88233    -4.17017
H     -0.35694    -1.83798    -2.11840
H      1.70459    -1.93683    -4.08217
H      0.08689    -2.64186    -4.24402
C     -3.01898     3.96681     0.60909
O     -3.10857     2.83577    -0.23096
H     -2.64240     4.84343     0.07412
H     -2.20667     2.64264    -0.52777
H     -4.01262     4.19742     0.99055
H     -2.35691     3.78528     1.46262
C      1.94795    -2.16231     4.34350
O      1.97971    -1.85389     2.96424
H      1.82467    -3.23489     4.51649
H      1.17536    -2.21801     2.55807
H      2.89130    -1.84938     4.78910
H      1.13378    -1.63687     4.85315
C      1.29070     1.32377     1.91296
O      0.71712     0.60140     0.82534
H      1.83159     0.64879     2.56999
H      1.41357     0.05134     0.38194
H      1.94964     2.10598     1.54337
H      0.47957     1.78762     2.47250
C      3.38095    -1.67510    -0.22805
O      2.31829    -0.80360    -0.61009
H      4.24747    -1.06840     0.02258
H      1.75919    -1.25033    -1.27916
H      3.10268    -2.27046     0.64133
H      3.64467    -2.33700    -1.05335
C     -0.12007    -3.66016     0.70993
O     -0.30054    -2.89954     1.90129
H     -1.05727    -3.75830     0.16389
H     -1.00657    -2.25889     1.74879
H      0.61795    -3.20341     0.05294
H      0.22473    -4.65302     0.98951
C     -0.47965     1.48702    -2.11928
O     -0.54677     2.25352    -0.92337
H     -0.38912     2.16763    -2.96344
H     -0.08670     1.74893    -0.22750
H      0.37882     0.81936    -2.11702
H     -1.38144     0.89326    -2.24886
C     -3.17087    -1.33307    -2.17256
O     -1.95639    -1.68583    -1.52516
H     -2.96576    -1.13626    -3.22563
H     -1.97834    -1.33430    -0.61502
H     -3.89169    -2.14860    -2.10520
H     -3.60420    -0.43372    -1.72973
C      2.80071     3.01857    -1.20641
O      1.91584     3.79962    -0.42997
H      3.81724     3.27155    -0.90945
H      1.01804     3.61459    -0.72057
H      2.65320     1.94848    -1.05461
H      2.69961     3.22917    -2.27487
C     -2.66485     0.24235     1.63977
O     -1.70655    -0.57654     0.97037
H     -2.25202     1.22145     1.86607
H     -0.83067    -0.14016     1.00012
H     -3.53222     0.37713     0.99785
H     -2.97796    -0.24019     2.56577
