 36
-694.8527878904465
C      0.74463     1.97874    -1.83467
O      2.06796     1.54424    -1.59097
H      0.47757     1.83330    -2.88458
H      2.02583     0.60955    -1.36519
H      0.00854     1.46572    -1.21016
H      0.68722     3.04811    -1.62567
C      2.02695     1.81556     1.65186
O      1.52841     0.48819     1.78075
H      1.42459     2.39068     0.94971
H      1.74365    -0.01567     0.97911
H      1.98646     2.28770     2.63118
H      3.05949     1.81358     1.30164
C      2.29732    -2.28767    -0.77648
O      1.59036    -1.08443    -0.52722
H      2.66845    -2.30579    -1.80313
H      0.64618    -1.22237    -0.77342
H      3.13923    -2.34683    -0.08968
H      1.65236    -3.15225    -0.61822
C     -1.16043    -1.45098    -2.65890
O     -0.93018    -1.37154    -1.25913
H     -0.99134    -0.48429    -3.13729
H     -1.56598    -0.72404    -0.88409
H     -0.47565    -2.17878    -3.09216
H     -2.18192    -1.77145    -2.86630
C     -1.15835    -1.23501     2.48267
O     -1.06319     0.13000     2.09739
H     -2.17232    -1.42725     2.83166
H     -0.10291     0.33699     2.03552
H     -0.93896    -1.89590     1.64163
H     -0.46502    -1.45861     3.29367
C     -3.81518     0.90154     0.09234
O     -2.46871     0.50758    -0.10845
H     -3.86723     1.86529     0.60291
H     -2.02408     0.49861     0.76875
H     -4.29287     0.99451    -0.88112
H     -4.35754     0.16046     0.68463
