 36
-694.8466268703015
C     -2.92457     1.17716    -3.03737
O     -2.69148     0.96163    -1.65628
H     -3.78938     0.58828    -3.33983
H     -1.79462     1.29877    -1.44531
H     -3.13336     2.22890    -3.23766
H     -2.06308     0.86871    -3.63378
C      3.70735     1.99742     2.16381
O      2.45653     1.42490     1.82868
H      3.52056     2.90421     2.73880
H      2.60888     0.56174     1.41735
H      4.31251     1.32069     2.77426
H      4.27893     2.26608     1.27076
C      3.05763    -2.38848     1.19562
O      2.55828    -1.16632     0.68562
H      4.13994    -2.39320     1.08161
H      1.60721    -1.29738     0.52598
H      2.81300    -2.50413     2.25474
H      2.64817    -3.23927     0.64749
C     -2.47422    -2.33833    -1.87592
O     -2.44402    -1.51439    -0.71820
H     -3.46508    -2.77774    -2.00022
H     -2.68387    -0.60664    -1.01112
H     -2.22818    -1.76449    -2.77043
H     -1.75052    -3.14590    -1.76295
C     -0.15949     2.61965     0.06254
O     -0.19798     1.54212    -0.87454
H     -0.45479     3.52467    -0.46437
H      0.15789     0.75060    -0.45505
H     -0.85823     2.44543     0.88346
H      0.83989     2.75098     0.46854
C     -0.53176    -0.91617     1.86634
O     -0.12509    -1.24049     0.53512
H     -0.66016    -1.82667     2.45234
H     -0.95164    -1.45041     0.04179
H      0.23549    -0.29642     2.32962
H     -1.47590    -0.37274     1.84985
