 42
-810.6708606543966
C     -3.21107     0.49793    -2.99014
O     -1.85428     0.10572    -2.83370
H     -3.82107    -0.38715    -3.17649
H     -1.47716     0.68556    -2.13862
H     -3.57551     0.99470    -2.09065
H     -3.31427     1.17628    -3.83828
C     -0.28020    -1.63251     3.16757
O      0.78451    -1.02878     2.45496
H     -0.20172    -2.72015     3.13305
H      0.70928    -1.34319     1.52605
H     -0.23821    -1.31029     4.20679
H     -1.24845    -1.34500     2.75081
C      1.37053    -1.06913    -0.93249
O      0.49152    -1.76567    -0.05980
H      1.09421    -0.01939    -1.01914
H     -0.28873    -2.02274    -0.59677
H      2.38370    -1.13120    -0.53407
H      1.36568    -1.51569    -1.92444
C     -1.10890    -3.28060    -2.77471
O     -1.44818    -2.31149    -1.79980
H     -0.40797    -2.87135    -3.50625
H     -1.65148    -1.47045    -2.27047
H     -0.64417    -4.13390    -2.28182
H     -1.99951    -3.62820    -3.30205
C     -1.64080     0.80579     0.45381
O     -1.09070     1.46254    -0.68594
H     -1.72800    -0.26295     0.26462
H     -0.35128     2.02117    -0.36159
H     -1.01152     0.94831     1.33073
H     -2.63378     1.20076     0.66936
C      2.14588     2.62512    -0.27893
O      0.93244     2.74075     0.44319
H      1.91362     2.43278    -1.32790
H      1.09218     2.37929     1.34182
H      2.71672     3.55246    -0.21771
H      2.76276     1.80721     0.09928
C      2.72224     1.64368     3.28352
O      1.40849     1.52896     2.76801
H      3.02737     2.68860     3.24927
H      1.19101     0.57204     2.72310
H      2.76584     1.30402     4.31932
H      3.42607     1.05179     2.69252
