 60
-1158.0923445440217
C     -3.92676    -3.82637     0.05182
O     -2.63313    -3.94577     0.61452
H     -4.05475    -4.58705    -0.71861
H     -2.46161    -3.09916     1.08578
H     -4.69356    -3.97831     0.81374
H     -4.07050    -2.84500    -0.40206
C      2.75839     1.38964    -3.40057
O      2.01034     1.23814    -2.21109
H      2.72985     2.42036    -3.76509
H      2.44238     1.77645    -1.52527
H      3.80413     1.09824    -3.26406
H      2.32363     0.74451    -4.16401
C      1.04852     1.25502     4.04075
O      1.71565     1.18277     2.78175
H      1.59329     1.89662     4.73381
H      1.67558     2.05793     2.36567
H      0.02757     1.62738     3.92664
H      1.00703     0.24927     4.45421
C     -0.85197    -1.13888    -3.15793
O     -1.36132    -1.30116    -1.84689
H      0.08849    -0.58340    -3.15128
H     -1.17316    -2.21430    -1.56742
H     -0.67959    -2.10053    -3.64507
H     -1.57051    -0.58069    -3.76349
C      4.15697     2.11071     0.52037
O      3.23570     2.78969    -0.31978
H      4.98180     1.76232    -0.09852
H      2.55050     3.18876     0.23855
H      4.55201     2.78171     1.28520
H      3.69343     1.25051     1.00620
C     -0.80707    -4.94995    -2.19460
O     -0.75418    -3.90350    -1.24842
H     -0.48752    -5.89845    -1.75742
H     -1.40026    -4.10014    -0.53517
H     -1.81503    -5.07133    -2.60048
H     -0.13066    -4.70641    -3.01225
C     -3.04051    -0.52378     1.11498
O     -2.17020    -1.53517     1.60215
H     -2.95143    -0.41668     0.03317
H     -1.25743    -1.20510     1.48587
H     -4.06789    -0.79494     1.35779
H     -2.82845     0.43758     1.58570
C     -1.13977     2.11408    -1.24323
O     -0.85382     2.06306     0.15995
H     -1.92100     2.85322    -1.40507
H     -0.68194     1.14097     0.40939
H     -0.25083     2.40361    -1.80214
H     -1.47625     1.14196    -1.59926
C      0.55188     4.75080     1.73767
O      1.04084     3.51582     1.24015
H      0.22802     5.39176     0.91644
H      0.29600     3.04438     0.78942
H     -0.29036     4.58624     2.41262
H      1.35516     5.24149     2.28236
C      1.10480    -1.10080     0.29343
O      0.23452    -0.46869     1.24856
H      2.11959    -1.12669     0.68859
H      0.80385     0.04880     1.85382
H      0.76357    -2.11611     0.11288
H      1.10389    -0.55219    -0.64459
