 36
-694.8522746129734
C     -0.49268     1.03945     2.94157
O     -0.53916    -0.31303     2.49587
H      0.51245     1.25357     3.30480
H     -1.29538    -0.37353     1.88206
H     -0.72971     1.72088     2.12406
H     -1.20094     1.19754     3.75486
C      2.94141     0.79770    -1.17447
O      1.66224     0.33314    -0.78723
H      3.61685    -0.04282    -1.33951
H      1.76411    -0.18398     0.05667
H      2.84225     1.36067    -2.10003
H      3.36501     1.44800    -0.40784
C      2.84446    -0.83019     2.43694
O      1.82580    -0.92261     1.45850
H      3.00044     0.20491     2.75069
H      0.95632    -0.79307     1.90649
H      2.59713    -1.42732     3.31449
H      3.77060    -1.20885     2.01109
C     -0.50746    -1.95479    -2.18049
O      0.38390    -1.06601    -2.81961
H      0.01433    -2.65367    -1.52091
H      0.90653    -0.64017    -2.12750
H     -1.26066    -1.42924    -1.58990
H     -1.01802    -2.53688    -2.94714
C     -3.72731    -0.13234     0.07974
O     -2.42472    -0.00598     0.61841
H     -4.20373    -0.99978     0.52905
H     -1.93000     0.62429     0.05761
H     -4.32669     0.75458     0.29533
H     -3.69105    -0.27718    -1.00130
C     -1.13847     1.87108    -2.17187
O     -0.80273     1.58333    -0.82273
H     -2.10122     2.38040    -2.18140
H      0.09341     1.20269    -0.80757
H     -0.39734     2.53400    -2.62168
H     -1.20264     0.96212    -2.76792
