 54
-1042.2845867205924
C      3.93398    -1.87241    -0.83050
O      2.62224    -1.35502    -0.93009
H      3.88636    -2.91995    -0.53517
H      2.68626    -0.39605    -1.13136
H      4.45361    -1.81356    -1.78860
H      4.51967    -1.33032    -0.08334
C     -3.03684    -2.53473     1.04794
O     -3.10804    -1.27123     1.68947
H     -3.23893    -3.30750     1.78586
H     -3.27006    -0.59609     1.00015
H     -3.77933    -2.61701     0.25271
H     -2.04487    -2.70041     0.62063
C     -0.57826    -0.90074    -2.26899
O     -0.96030     0.35482    -1.70469
H     -0.72662    -1.70241    -1.54705
H     -0.62520     0.36645    -0.76815
H     -1.19380    -1.08810    -3.14656
H      0.47067    -0.89074    -2.56327
C      0.90801     0.90736     1.35424
O     -0.23752     0.28819     0.77094
H      1.83421     0.53415     0.92175
H     -0.20731    -0.66214     1.00262
H      0.85410     1.97953     1.17384
H      0.91379     0.73320     2.42726
C      1.32612    -2.60228     1.95769
O      0.70564    -2.31980     0.71570
H      2.05784    -1.83565     2.22195
H      1.40097    -2.02981     0.09388
H      0.56492    -2.62536     2.73454
H      1.83184    -3.57026     1.93562
C     -3.42859     1.83194     0.22612
O     -3.44162     0.50814    -0.29611
H     -3.55275     2.56530    -0.57157
H     -2.73294     0.43794    -0.95294
H     -4.25876     1.92963     0.92165
H     -2.49709     2.03634     0.75714
C      0.33992     3.54767    -2.36489
O      0.67387     2.22101    -2.75800
H      0.00856     4.12447    -3.22844
H     -0.07066     1.63083    -2.52967
H     -0.44827     3.54896    -1.60945
H      1.22482     4.02490    -1.94216
C      3.93739     1.74122    -2.14798
O      2.78664     1.23067    -1.50028
H      3.86179     2.82112    -2.27987
H      1.99888     1.60010    -1.96580
H      4.81261     1.53453    -1.53464
H      4.07174     1.28128    -3.12963
C     -1.42413     0.51954     3.95281
O     -1.13255    -0.77231     3.46873
H     -2.42793     0.58080     4.38163
H     -1.83045    -0.99164     2.82329
H     -0.70663     0.76936     4.73558
H     -1.34388     1.26814     3.15969
