 24
-463.2207329271291
C      2.31350     0.50947     1.42812
O      0.98834     0.42747     0.91230
H      2.25029     0.92372     2.43148
H      1.00200    -0.09897     0.09776
H      2.77767    -0.47809     1.48165
H      2.92970     1.16182     0.80818
C     -0.75313     2.26344    -1.69453
O      0.11980     2.77569    -0.70481
H     -0.80592     2.98777    -2.50601
H      0.25201     2.09115    -0.04380
H     -0.39725     1.31175    -2.09732
H     -1.76401     2.11743    -1.30023
C     -2.56963    -0.68320     1.40141
O     -1.30396    -1.33181     1.35192
H     -3.32668    -1.41135     1.11668
H     -0.62576    -0.67762     1.56421
H     -2.78812    -0.32000     2.40768
H     -2.60306     0.15714     0.70399
C      0.92416    -2.60317    -1.43988
O      0.18527    -1.43002    -1.12202
H      1.74320    -2.30977    -2.09382
H     -0.51007    -1.66699    -0.49090
H      1.33516    -3.06439    -0.53821
H      0.29974    -3.33198    -1.96028
