 42
-810.662375645269
C     -3.99218    -1.00968     1.62361
O     -3.04754    -1.01838     0.56908
H     -4.54934    -0.07415     1.59122
H     -2.40902    -1.74514     0.74820
H     -4.69881    -1.83553     1.51888
H     -3.50217    -1.09214     2.59661
C      2.10688    -1.39141     0.56125
O      1.00848    -1.81545    -0.23719
H      2.88230    -0.92964    -0.04821
H      0.77647    -1.08799    -0.84290
H      1.79317    -0.66704     1.31240
H      2.52797    -2.26503     1.05464
C     -1.39959    -4.06193     0.29580
O     -1.13590    -2.83121     0.95864
H     -1.16587    -4.90285     0.95056
H     -0.29655    -2.47504     0.58810
H     -2.45732    -4.11244     0.02832
H     -0.80498    -4.14075    -0.61463
C     -0.66137     0.93059     1.62885
O     -1.37977     1.06458     0.40255
H      0.21939     1.56644     1.59620
H     -2.09584     0.39087     0.42326
H     -1.28075     1.24068     2.47008
H     -0.34584    -0.10150     1.78654
C     -0.87062    -0.09094    -2.59727
O      0.11157     0.33815    -1.65964
H     -0.43489    -0.85714    -3.23662
H     -0.38660     0.72358    -0.89561
H     -1.73541    -0.50598    -2.07866
H     -1.19393     0.74649    -3.21556
C      4.04513     1.93147     1.04755
O      2.63776     1.86165     0.91998
H      4.30322     1.80508     2.09872
H      2.39976     2.20588     0.04373
H      4.53839     1.14094     0.47378
H      4.43930     2.89286     0.70865
C      0.73057     3.57899    -1.55105
O      1.81197     2.65652    -1.60702
H      1.09266     4.48804    -1.07645
H      1.44967     1.81279    -1.91170
H      0.38157     3.82277    -2.55591
H     -0.10334     3.17995    -0.97113
