 24
-463.22016948686144
C      1.77108     0.53814     1.50892
O      0.48899     1.14292     1.37379
H      1.82821     0.08733     2.49773
H      0.52828     1.71047     0.58172
H      1.92127    -0.23345     0.75133
H      2.55825     1.28710     1.41873
C     -0.09523     1.73469    -1.96199
O      0.42110     2.58249    -0.92691
H      0.57342     0.88480    -2.05732
H     -0.10209     3.38341    -0.90456
H     -1.09198     1.37591    -1.70468
H     -0.12869     2.26654    -2.91277
C     -1.74189    -1.45231     2.06735
O     -1.33293    -0.76217     0.90270
H     -2.54445    -2.13649     1.79581
H     -0.75586    -0.02283     1.18373
H     -0.91785    -2.03052     2.49580
H     -2.11490    -0.76185     2.82771
C      0.07010    -2.62117    -1.94342
O      0.50401    -1.54817    -1.12986
H     -0.80339    -2.34596    -2.54376
H     -0.17371    -1.37126    -0.45989
H      0.88295    -2.88229    -2.62111
H     -0.18287    -3.50584    -1.35108
