 24
-463.22055542801013
C      2.48220     0.08663    -1.42641
O      1.47668     1.09425    -1.58493
H      2.65542    -0.43370    -2.37048
H      1.81793     1.80434    -2.12781
H      3.41751     0.52138    -1.06843
H      2.11336    -0.61670    -0.68707
C     -0.71766     1.96227     1.74406
O     -1.23902     0.68802     1.40419
H     -0.78749     2.08835     2.82344
H     -1.42543     0.71574     0.44645
H      0.32965     2.04516     1.44361
H     -1.28383     2.76268     1.26277
C     -1.55458    -0.64882    -1.76632
O     -1.23792     0.65373    -1.29252
H     -1.37983    -0.72397    -2.84144
H     -0.29090     0.80222    -1.45346
H     -0.96429    -1.40886    -1.25193
H     -2.61065    -0.82702    -1.57421
C      0.40151    -2.55475     2.05040
O      0.60479    -1.53482     1.08630
H      0.70802    -2.23405     3.05054
H      0.00192    -0.79996     1.27369
H     -0.64576    -2.86868     2.09410
H      1.00670    -3.41570     1.76465
