 42
-810.6642559232035
C     -4.10597    -0.20609     0.45694
O     -3.04003     0.36388    -0.28179
H     -4.87591    -0.53701    -0.23749
H     -2.47077     0.83256     0.36467
H     -3.76202    -1.06305     1.04247
H     -4.54227     0.52501     1.13902
C      1.20087    -1.09079     2.99332
O      0.64320    -0.48516     1.84195
H      2.02407    -1.75345     2.72309
H      0.45173    -1.20697     1.18984
H      1.57989    -0.30919     3.64887
H      0.44800    -1.66709     3.53172
C     -0.48102    -3.57330     0.56900
O      0.12188    -2.37565     0.10434
H      0.25762    -4.15069     1.12233
H     -0.46143    -2.03937    -0.62302
H     -1.33026    -3.35689     1.22233
H     -0.83549    -4.17494    -0.26728
C      2.53085     2.75694    -2.49029
O      1.50541     2.07649    -1.80432
H      3.22320     2.06115    -2.97478
H      1.88542     1.74457    -0.97567
H      2.08059     3.37685    -3.26543
H      3.11111     3.40725    -1.82861
C     -0.98964    -0.69539    -2.77140
O     -1.55619    -1.38905    -1.66294
H     -0.39900    -1.40418    -3.34957
H     -2.16373    -0.76493    -1.20708
H     -1.77393    -0.29498    -3.41397
H     -0.34855     0.12460    -2.44399
C      3.30040    -0.17024    -0.06684
O      2.56909     0.93442     0.45255
H      2.67648    -1.06336    -0.12956
H      1.87904     0.56581     1.02869
H      3.65209     0.07628    -1.06836
H      4.16957    -0.38373     0.55947
C     -0.80720     2.66334     1.08359
O     -1.42592     1.46204     1.54457
H     -0.01982     2.97994     1.76855
H     -0.72554     0.83235     1.76955
H     -0.37748     2.52793     0.09032
H     -1.56887     3.43925     1.04224
