 36
-694.8527352286995
C      0.53165     0.42721     3.24881
O     -0.51231     0.15985     2.32791
H      1.47225     0.63509     2.73325
H     -0.57748     0.94124     1.72278
H      0.28115     1.28424     3.87437
H      0.66493    -0.44456     3.88832
C      2.44049     1.89382    -1.24257
O      1.16443     1.31309    -1.43620
H      2.34285     2.97703    -1.28647
H      1.26928     0.34092    -1.46719
H      2.85786     1.62291    -0.26901
H      3.13757     1.57929    -2.02053
C      2.65573    -1.74029    -0.57430
O      1.41867    -1.37985    -1.16639
H      2.63325    -2.76958    -0.21389
H      0.71980    -1.65400    -0.54373
H      3.44071    -1.65408    -1.32302
H      2.89647    -1.08609     0.26838
C     -1.20077    -2.97750     1.24964
O     -0.45374    -1.89222     0.72347
H     -0.69087    -3.40645     2.11312
H     -0.47316    -1.15446     1.38879
H     -2.19384    -2.64370     1.55195
H     -1.29951    -3.73404     0.47574
C     -1.55720    -0.29290    -2.59393
O     -2.11783    -0.40502    -1.29413
H     -1.00025     0.63957    -2.70297
H     -1.54737    -0.94144    -0.73920
H     -0.88831    -1.12581    -2.82128
H     -2.36894    -0.29725    -3.32295
C     -1.73397     2.60350     0.04441
O     -0.50856     2.07981     0.54013
H     -1.54713     3.42712    -0.64706
H      0.05025     1.80921    -0.21779
H     -2.30732     1.83107    -0.46323
H     -2.30601     2.99117     0.88634
