 36
-694.8534945794855
C     -1.07392     0.63262    -2.67963
O     -0.03922     1.36051    -2.02057
H     -1.74538     0.17815    -1.95015
H     -0.43483     1.73005    -1.21311
H     -1.64734     1.29009    -3.33447
H     -0.62201    -0.15746    -3.27916
C      2.32299     0.75839     1.64974
O      0.94823     0.60093     1.97742
H      2.90774     0.33887     2.46900
H      0.40136     1.05465     1.32833
H      2.58031     0.23000     0.73119
H      2.59685     1.81250     1.54213
C      2.26081    -1.02190    -2.78209
O      1.79645    -0.51928    -1.54092
H      3.29303    -1.34768    -2.66790
H      1.24392     0.27237    -1.71855
H      1.65805    -1.87554    -3.10521
H      2.21903    -0.25556    -3.55690
C      0.79691    -2.64553     1.00654
O      0.11805    -2.04362    -0.08691
H      1.54784    -3.35710     0.65671
H      0.77416    -1.53222    -0.60593
H      1.26976    -1.88812     1.62930
H      0.07268    -3.19543     1.60838
C     -1.92441     2.81789     1.15324
O     -1.29161     1.85356     0.32939
H     -2.21143     2.37415     2.10728
H     -1.70595     0.97614     0.50229
H     -1.22076     3.62534     1.34189
H     -2.81237     3.22114     0.66484
C     -2.11025    -0.99939     2.12497
O     -1.99125    -0.65215     0.75281
H     -1.15271    -0.91112     2.63878
H     -1.26002    -1.19708     0.37968
H     -2.82880    -0.33010     2.59569
H     -2.48375    -2.01891     2.23274
