 36
-694.8469522118544
C     -0.22812     2.27683     1.73224
O     -0.26978     1.57459     0.49343
H     -1.22302     2.66195     1.94642
H      0.65378     1.56932     0.13977
H      0.08101     1.60768     2.54014
H      0.47569     3.10642     1.67273
C      2.79014     1.65211    -1.50796
O      2.20853     1.32961    -0.25249
H      2.58179     0.87676    -2.24705
H      2.37782     0.38330    -0.06228
H      2.36443     2.59231    -1.85311
H      3.87019     1.76895    -1.41157
C      2.87946    -1.53885     1.64860
O      2.25943    -1.30130     0.38893
H      2.73381    -2.57122     1.96822
H      1.32501    -1.55057     0.46254
H      3.94633    -1.35361     1.53747
H      2.48006    -0.87055     2.41566
C     -1.77127    -1.59902     1.64046
O     -0.59584    -1.19190     0.93917
H     -1.88819    -2.67161     1.50142
H     -0.60085    -0.22100     0.86365
H     -1.66180    -1.39583     2.70687
H     -2.64932    -1.08121     1.25932
C     -3.45789     0.57660    -1.07136
O     -3.00488     1.12706     0.15581
H     -4.24738    -0.14157    -0.84779
H     -2.08740     1.40444     0.04542
H     -3.87573     1.34902    -1.72245
H     -2.65965     0.05374    -1.59946
C      0.06243    -1.01805    -2.32840
O     -0.88494    -1.90912    -1.77809
H      1.08351    -1.37618    -2.17554
H     -0.89319    -1.76738    -0.82522
H     -0.11618    -0.94166    -3.40197
H     -0.01549    -0.01470    -1.89804
