 42
-810.6691289171328
C     -2.94908    -1.88538    -2.99246
O     -1.68410    -1.30263    -2.72934
H     -3.13477    -1.85032    -4.06369
H     -1.36228    -1.67518    -1.88121
H     -2.97738    -2.92647    -2.66911
H     -3.74429    -1.33917    -2.47812
C      0.31487     0.13422     3.85264
O      1.34398     0.04641     2.88095
H     -0.66810     0.04375     3.38360
H      1.40319     0.93786     2.46495
H      0.43794    -0.67154     4.57547
H      0.35401     1.08863     4.37711
C      1.21797     0.61733    -1.03850
O      0.40658     1.74385    -0.70496
H      1.63937     0.17985    -0.13486
H     -0.36877     1.70828    -1.29913
H      0.64157    -0.15165    -1.54843
H      2.04008     0.92800    -1.68623
C     -1.12019     1.97637    -3.74388
O     -1.52298     1.37992    -2.52261
H     -1.90509     1.88772    -4.49754
H     -1.62364     0.41622    -2.67610
H     -0.93060     3.03391    -3.56544
H     -0.20668     1.51660    -4.12911
C     -1.73007    -0.98866     0.50025
O     -0.97774    -1.95022    -0.23638
H     -2.03786    -1.40251     1.46257
H     -0.14451    -2.08068     0.26173
H     -1.15618    -0.07641     0.66596
H     -2.63167    -0.74509    -0.06043
C      1.81551    -3.21602     1.92912
O      1.19778    -2.09971     1.31333
H      1.83658    -4.03884     1.21732
H      1.29414    -1.33616     1.92202
H      2.84042    -2.97991     2.22225
H      1.26192    -3.53186     2.81717
C      2.52010     3.07640     1.41452
O      1.29750     2.41152     1.70517
H      2.86725     2.83210     0.40992
H      0.83369     2.29849     0.84934
H      2.39070     4.15687     1.49325
H      3.27269     2.76162     2.13722
