 48
-926.4767661293591
C      0.95127    -1.27412     3.97136
O      1.19572    -0.76019     2.66908
H      0.66175    -0.45479     4.63121
H      0.82907    -1.39829     2.02025
H      0.14442    -2.00800     3.95716
H      1.85320    -1.74056     4.37246
C     -3.42505    -1.43074     0.12363
O     -2.13120    -0.90939    -0.10871
H     -3.44017    -2.47766    -0.17564
H     -2.10722     0.03156     0.24458
H     -3.68132    -1.36094     1.17998
H     -4.16773    -0.88254    -0.45747
C     -1.69128    -1.84371    -3.40542
O     -1.04545    -0.88468    -2.59021
H     -1.57674    -2.84817    -2.99112
H     -1.46060    -0.92527    -1.70747
H     -2.75653    -1.62634    -3.50257
H     -1.23886    -1.81885    -4.39383
C      0.81896    -2.55979    -0.31529
O      0.01708    -2.32831     0.83558
H      1.01993    -1.63706    -0.86120
H     -0.79909    -1.89418     0.53433
H      1.76636    -2.99006     0.00491
H      0.33553    -3.26673    -0.98971
C     -1.41895     2.35306    -0.36857
O     -1.90410     1.52597     0.69017
H     -1.97636     2.13146    -1.27813
H     -1.26426     1.62490     1.43539
H     -1.57627     3.40304    -0.12313
H     -0.36006     2.18382    -0.55636
C      1.86649     0.60439    -3.77016
O      1.19762     0.64049    -2.52154
H      1.84065    -0.39890    -4.20065
H      0.38104     0.11814    -2.59632
H      1.41366     1.30440    -4.47584
H      2.90829     0.88449    -3.61534
C      3.07702     0.97554     0.31338
O      2.38125     1.95533    -0.43036
H      2.42966     0.14847     0.60666
H      1.95644     1.49933    -1.17053
H      3.92844     0.57448    -0.24311
H      3.46020     1.43355     1.22502
C      0.87232     2.74435     2.50960
O     -0.02040     1.64072     2.55057
H      0.30292     3.65174     2.70875
H      0.50458     0.81297     2.55223
H      1.63719     2.65003     3.28340
H      1.35555     2.82504     1.53810
