 30
-579.0341184648615
C      2.47331     0.27309    -1.17022
O      1.80569     0.84750    -0.05584
H      3.52657     0.09940    -0.94243
H      1.74163     0.17580     0.65097
H      2.00196    -0.66512    -1.45904
H      2.41624     0.97541    -2.00158
C     -3.20845    -0.21144     0.44925
O     -1.80388    -0.31959     0.59073
H     -3.48600    -0.00731    -0.58830
H     -1.41064     0.54705     0.35257
H     -3.65957    -1.15390     0.75497
H     -3.60862     0.58771     1.07850
C      0.86978    -2.17810     1.65306
O      1.42008    -0.89591     1.98066
H      1.31677    -2.49695     0.71448
H      0.89705    -0.51003     2.68420
H      1.12019    -2.90202     2.42914
H     -0.20822    -2.11558     1.52360
C     -0.56083     3.15224     0.55758
O     -0.57157     1.94736    -0.18484
H     -1.58335     3.51951     0.63669
H      0.35911     1.62280    -0.23699
H     -0.16255     2.99573     1.56376
H      0.04446     3.91008     0.05635
C     -0.56366    -0.96942    -2.55108
O     -0.31126    -1.74283    -1.39268
H     -0.31454     0.08471    -2.39935
H     -0.84047    -1.36521    -0.67620
H      0.05417    -1.35521    -3.36293
H     -1.61037    -1.03552    -2.85990
