 60
-1158.0943929132543
C     -0.48974    -2.53203    -1.93035
O     -0.39512    -2.07655    -0.58855
H     -0.20735    -3.58485    -2.00093
H      0.53154    -2.19003    -0.30589
H     -1.52310    -2.42630    -2.25380
H      0.13619    -1.94247    -2.59810
C     -1.05226     4.26701    -0.37683
O     -1.90276     3.13389    -0.46524
H     -1.34720     4.91466     0.44965
H     -1.84133     2.64477     0.37329
H     -0.01504     3.96106    -0.24344
H     -1.14016     4.83006    -1.30435
C      3.66570     0.49416     2.48971
O      2.55741    -0.09274     1.82657
H      3.96520    -0.16399     3.30101
H      2.14926     0.60566     1.26106
H      4.50295     0.62189     1.80123
H      3.39113     1.46623     2.90101
C     -0.62569    -4.36216     1.70791
O     -1.48044    -3.23239     1.72441
H      0.40081    -4.08113     1.45907
H     -1.28146    -2.73667     0.91767
H     -0.63305    -4.81907     2.69759
H     -0.96421    -5.10885     0.98319
C      3.09524    -2.14490    -0.88286
O      2.21269    -2.29715     0.21478
H      4.09139    -1.84704    -0.55347
H      2.40667    -1.59254     0.85587
H      3.17095    -3.09950    -1.39929
H      2.72761    -1.39853    -1.59126
C     -2.08497     0.28929     1.13459
O     -1.37483     1.44184     1.61972
H     -1.96573    -0.53426     1.83130
H     -0.89432     1.14077     2.42526
H     -3.14229     0.53713     1.04998
H     -1.71923    -0.01681     0.15657
C      0.82228     1.04240    -4.70485
O     -0.02981     0.18790    -3.97027
H      1.56410     0.43165    -5.21927
H     -0.71294     0.74238    -3.55796
H      0.27588     1.62678    -5.45049
H      1.35093     1.74105    -4.04783
C     -3.22718     1.15376    -2.75062
O     -1.92208     1.70669    -2.71048
H     -3.39164     0.70733    -3.73045
H     -1.87984     2.25402    -1.89928
H     -3.34746     0.37862    -1.98814
H     -3.98312     1.92410    -2.58662
C      1.04531     1.31282    -0.94719
O      1.14734     1.64308     0.43665
H      0.46870     2.05909    -1.48892
H      0.24780     1.67624     0.80817
H      2.05212     1.29864    -1.35983
H      0.58925     0.33893    -1.11213
C     -0.43223    -0.68708     4.27164
O      0.15063     0.33070     3.45814
H      0.23275    -0.94841     5.09594
H      0.94733    -0.01854     3.03546
H     -1.35443    -0.28521     4.68888
H     -0.66194    -1.57867     3.68910
