 48
-926.4801006873425
C     -0.65560    -0.95024     2.86884
O      0.06739    -1.75699     1.95265
H      0.04368    -0.55477     3.60407
H     -0.53790    -1.96664     1.20466
H     -1.14981    -0.11421     2.37083
H     -1.40814    -1.54499     3.38804
C     -1.42960     3.25775     2.11456
O     -2.19306     2.31023     1.39527
H     -0.87795     3.92944     1.44987
H     -1.87169     2.28720     0.48599
H     -2.09129     3.86084     2.73685
H     -0.71199     2.75834     2.77355
C      2.67337    -3.53328     0.76624
O      2.49487    -2.13299     0.89382
H      3.54267    -3.71930     0.13588
H      1.65274    -1.98101     1.37288
H      2.84461    -3.99055     1.74157
H      1.80093    -4.00309     0.30964
C      1.55798     1.55339     0.75569
O      1.30441     1.56003    -0.64981
H      1.36516     2.54739     1.15416
H      1.78053     0.77484    -1.00593
H      0.92105     0.83581     1.27448
H      2.59814     1.30646     0.95415
C     -3.92501     0.15883    -0.56646
O     -2.71320    -0.17156    -1.23016
H     -4.42370     0.99241    -1.06379
H     -2.17257     0.63665    -1.28375
H     -4.58160    -0.70873    -0.60173
H     -3.74174     0.43090     0.47360
C     -0.57804    -2.68219    -1.29696
O     -1.37415    -2.22470    -0.21204
H     -0.47443    -3.76453    -1.22509
H     -1.91946    -1.48723    -0.56474
H     -1.05318    -2.44693    -2.24938
H      0.41531    -2.23021    -1.28680
C     -1.22376     2.95846    -2.32215
O     -1.15524     2.02943    -1.25756
H     -0.84756     3.92907    -1.99617
H     -0.19232     1.84838    -1.07475
H     -0.63434     2.61264    -3.17109
H     -2.26263     3.06546    -2.62887
C      4.07831    -0.28084    -1.48581
O      2.71382    -0.59048    -1.27124
H      4.14713     0.60790    -2.11216
H      2.67700    -1.20127    -0.50342
H      4.58547    -0.08311    -0.53866
H      4.58934    -1.10245    -1.99200
