 42
-810.6677632396461
C     -3.09489     0.41515     1.54339
O     -1.68251     0.42986     1.65972
H     -3.50397    -0.26706     2.28719
H     -1.34747     0.96803     0.91956
H     -3.51318     1.40566     1.73476
H     -3.40932     0.08191     0.55314
C      1.52447    -2.57076    -0.63704
O      1.84859    -2.16540     0.68296
H      0.52836    -2.23061    -0.91818
H      1.00687    -2.16517     1.18444
H      2.25494    -2.15016    -1.32959
H      1.56565    -3.65742    -0.72283
C     -1.52616    -2.90378     1.32469
O     -0.56354    -1.98792     1.81907
H     -2.44070    -2.86896     1.91939
H     -0.96669    -1.09518     1.79137
H     -1.77433    -2.69051     0.28384
H     -1.12482    -3.91391     1.39585
C      2.28529     3.01211    -1.44757
O      1.54932     1.81010    -1.29516
H      2.31891     3.57541    -0.51205
H      2.05348     1.23344    -0.66625
H      3.30687     2.80301    -1.76415
H      1.80443     3.62320    -2.20928
C     -0.92034    -0.73045    -2.81786
O     -1.74177    -0.77671    -1.66558
H     -0.00375    -0.15988    -2.64128
H     -1.57976     0.03731    -1.17578
H     -0.63698    -1.74848    -3.08834
H     -1.44841    -0.28416    -3.66440
C      2.07462     0.85164     1.82210
O      2.65130     0.36475     0.61063
H      1.81888     1.90415     1.69951
H      2.48813    -0.60799     0.61194
H      1.16599     0.30081     2.06699
H      2.78175     0.75479     2.64626
C     -1.63669     2.85200    -0.98941
O     -0.92741     1.70927    -0.54764
H     -1.18117     3.76415    -0.60458
H      0.00965     1.77725    -0.87271
H     -1.64947     2.89103    -2.07907
H     -2.66203     2.79394    -0.62743
