 18
-347.4147933120669
C     -1.42736     2.23663     0.31107
O     -0.64073     1.45322    -0.57667
H     -0.95356     3.19818     0.51904
H      0.21050     1.27992    -0.15229
H     -2.38745     2.41566    -0.16922
H     -1.59450     1.71341     1.25613
C     -1.65755    -2.05959     0.35166
O     -0.68625    -1.47417    -0.50390
H     -1.75557    -1.49340     1.28113
H     -0.97386    -0.57718    -0.72058
H     -2.63312    -2.11571    -0.13561
H     -1.32349    -3.06791     0.58629
C      2.80211    -0.11996    -0.16927
O      1.58664    -0.01997     0.56284
H      2.61126    -0.12037    -1.24477
H      1.02459    -0.76762     0.31748
H      3.41086     0.74568     0.08406
H      3.35041    -1.02642     0.09638
