 30
-579.0428886853065
C      3.10020     1.18588     0.44931
O      1.75173     0.92609     0.80195
H      3.30920     2.25637     0.48476
H      1.18294     1.22998     0.05950
H      3.75280     0.68279     1.16256
H      3.32560     0.81499    -0.55244
C     -1.77526    -0.59188     1.12618
O     -1.19130    -1.59934     0.31189
H     -2.27043    -1.03677     1.99068
H     -0.29774    -1.76053     0.68588
H     -1.02249     0.11817     1.47280
H     -2.52472    -0.05385     0.54663
C      1.30423    -1.82648     2.84606
O      1.20868    -1.61248     1.45115
H      0.69881    -1.10575     3.40116
H      1.50194    -0.69376     1.27054
H      0.94843    -2.83082     3.06655
H      2.33865    -1.74492     3.18613
C     -0.74998     2.69445    -1.04347
O      0.18974     1.65463    -1.23172
H     -0.23189     3.57313    -0.66363
H     -0.28311     0.90387    -1.65225
H     -1.23415     2.95971    -1.98485
H     -1.52462     2.40710    -0.32676
C     -2.51764    -0.43211    -2.62839
O     -1.20908    -0.44514    -2.09154
H     -2.47835     0.00536    -3.62372
H     -1.21991    -1.00624    -1.28495
H     -2.92132    -1.44257    -2.71000
H     -3.19640     0.16333    -2.01201
