 36
-694.8490024920507
C      1.87643     1.35524    -1.28260
O      1.94588     0.21583    -0.42453
H      0.91061     1.41086    -1.78363
H      1.33848     0.34855     0.31550
H      2.03701     2.27240    -0.72024
H      2.66385     1.25266    -2.02608
C     -0.13990     4.47716    -0.47897
O     -0.29520     3.36994     0.38669
H      0.48221     5.21850     0.02293
H     -0.78465     2.67991    -0.08148
H      0.35441     4.19333    -1.41437
H     -1.09974     4.94069    -0.72709
C      0.14432    -1.96440    -2.22236
O      1.06733    -2.19347    -1.16832
H     -0.54964    -2.80324    -2.26627
H      1.50572    -1.33845    -0.97227
H     -0.41492    -1.04180    -2.07018
H      0.66575    -1.90874    -3.17860
C      0.73774    -3.52083     1.97932
O     -0.15073    -2.83226     1.10956
H      0.91219    -4.53595     1.62382
H      0.28215    -2.78957     0.22509
H      1.69830    -3.00602     2.05554
H      0.28223    -3.57087     2.96602
C     -2.77545     0.55263    -0.95806
O     -1.44815     1.00850    -0.78098
H     -3.40290     0.81009    -0.10062
H     -1.06757     0.48506    -0.05063
H     -3.18909     1.02607    -1.84663
H     -2.80811    -0.53116    -1.09565
C     -0.57410     0.31906     2.60395
O     -0.34988    -0.23539     1.31572
H     -1.59480     0.12044     2.93469
H     -0.36522    -1.22483     1.35109
H      0.12272    -0.10062     3.33107
H     -0.41789     1.39444     2.54405
