 36
-694.8514124743954
C     -3.37918    -0.64241    -2.03174
O     -2.43068    -0.80488    -0.99158
H     -3.63908    -1.60584    -2.47435
H     -1.55256    -0.95460    -1.38906
H     -4.28119    -0.20023    -1.61059
H     -2.99750     0.01634    -2.81496
C      3.33447     0.88474    -0.81137
O      3.47927    -0.41193    -0.27472
H      2.47513     0.95600    -1.48511
H      2.72573    -0.56684     0.30800
H      3.22202     1.64068    -0.02919
H      4.23230     1.11513    -1.38222
C      0.21929    -1.91331     1.46930
O      1.00718    -0.83380     0.97210
H      0.81996    -2.82026     1.45834
H      0.76565    -0.02691     1.48952
H     -0.10395    -1.70608     2.48792
H     -0.66171    -2.05973     0.84216
C     -1.29171     2.17819    -0.48386
O     -1.87303     1.34743     0.51773
H     -0.66013     1.59481    -1.15627
H     -2.16013     0.52529     0.07275
H     -2.06849     2.68336    -1.05959
H     -0.68010     2.93312     0.00882
C      1.07856    -1.59278    -2.56058
O      0.21253    -0.88907    -1.68015
H      2.12219    -1.41604    -2.30725
H      0.63381    -0.83085    -0.80452
H      0.87775    -2.66598    -2.52156
H      0.89349    -1.24186    -3.57497
C     -0.34955     1.06244     3.68086
O      0.06053     1.16402     2.32618
H     -0.44915     2.05298     4.12588
H     -0.74342     1.31123     1.77611
H     -1.30517     0.54012     3.76113
H      0.40423     0.50590     4.23600
