 42
-810.6658343791371
C     -2.41999     1.56625     1.94066
O     -1.14667     1.35250     1.35012
H     -2.90561     2.44483     1.51632
H     -1.29140     1.29073     0.37664
H     -3.07016     0.70246     1.79500
H     -2.29305     1.73527     3.00918
C      0.06537    -0.87069     3.62380
O      0.22684    -0.67619     2.23265
H      0.68186    -1.71276     3.93137
H     -0.27123     0.13995     1.97538
H      0.37259     0.01535     4.18299
H     -0.97491    -1.09669     3.85952
C      0.59029    -0.12838    -4.08587
O      0.31479    -0.03499    -2.70014
H      0.68232     0.86459    -4.53311
H      1.16822     0.11543    -2.23523
H      1.51492    -0.68063    -4.26050
H     -0.22936    -0.66156    -4.56533
C      2.11114     1.93400    -0.82880
O      2.44234     0.61956    -1.26236
H      1.48781     1.90835     0.06507
H      2.59153     0.09113    -0.44895
H      3.01769     2.50365    -0.61835
H      1.56657     2.44101    -1.62557
C     -1.58731    -2.58945    -0.58812
O     -1.99729    -1.92311     0.59779
H     -0.93297    -3.43894    -0.37378
H     -1.21382    -1.65856     1.09028
H     -2.48074    -2.97089    -1.08231
H     -1.07325    -1.91458    -1.27792
C      3.47849    -0.02584     2.02534
O      2.64116    -0.66562     1.08145
H      3.01747     0.88621     2.41237
H      1.76409    -0.75169     1.50177
H      3.69987    -0.68756     2.86465
H      4.41861     0.23623     1.54212
C     -2.90282     0.54508    -1.57683
O     -1.64051     1.10917    -1.24885
H     -3.66422     1.32277    -1.51863
H     -0.96269     0.69267    -1.81824
H     -2.89584     0.14963    -2.59349
H     -3.15162    -0.25877    -0.88584
