 42
-810.6703065117019
C     -1.55014    -2.85253     3.36998
O     -1.00731    -2.49441     2.11145
H     -2.49708    -2.33771     3.54405
H     -1.07826    -1.51958     2.02160
H     -1.73103    -3.92583     3.37779
H     -0.86052    -2.60327     4.18092
C     -0.50906    -1.03336    -1.42350
O      0.89894    -0.98488    -1.21776
H     -1.03005    -1.36085    -0.52465
H      1.12406    -1.63529    -0.52316
H     -0.87666    -0.04508    -1.69256
H     -0.74969    -1.71756    -2.23900
C      1.08870    -4.14351    -0.13877
O      1.20553    -2.94624     0.61529
H      0.93461    -5.00551     0.51190
H      0.44162    -2.88941     1.22371
H      0.25829    -4.08889    -0.84747
H      2.01229    -4.28507    -0.69679
C      2.96906     1.59720    -1.37349
O      1.83400     1.28124    -2.16142
H      3.69022     0.78055    -1.38359
H      1.54702     0.38456    -1.87326
H      3.44627     2.48611    -1.78072
H      2.67818     1.79221    -0.33774
C     -3.00320     1.59974    -0.49327
O     -1.79554     2.00278     0.13724
H     -3.82680     2.24185    -0.17969
H     -1.21929     2.39048    -0.55601
H     -2.90402     1.65320    -1.57816
H     -3.23719     0.56851    -0.21723
C      0.45934     0.48400     2.08443
O     -0.88219     0.12938     1.77513
H      0.52111     1.51002     2.44810
H     -1.23324     0.82328     1.17010
H      0.83022    -0.17712     2.86664
H      1.09692     0.37532     1.20756
C      0.21925     4.24285    -1.81795
O     -0.23827     2.90297    -1.81966
H      0.80760     4.45891    -0.92248
H      0.53001     2.32612    -2.02599
H      0.83544     4.44555    -2.69530
H     -0.64229     4.90742    -1.84132
