 24
-463.2236507480505
C      2.21938     0.64248     1.38970
O      0.93274     1.15167     1.73667
H      2.50814    -0.06405     2.16516
H      0.63840     1.74970     1.03446
H      2.19399     0.12711     0.42790
H      2.95731     1.44460     1.34960
C     -0.10486     1.74518    -1.90388
O     -0.67052     1.79505    -0.59469
H      0.25652     2.74373    -2.14343
H     -1.03182     0.92625    -0.39059
H      0.72410     1.03937    -1.93991
H     -0.85194     1.45509    -2.64598
C     -2.02708    -0.90635     1.71877
O     -0.84283    -0.74309     0.95129
H     -2.86812    -1.00052     1.03497
H     -0.23191    -0.16278     1.44611
H     -1.96401    -1.80542     2.33311
H     -2.18626    -0.04097     2.36226
C      0.18459    -2.73136    -1.92684
O      0.66441    -1.53372    -1.34082
H      0.30135    -3.58638    -1.25492
H      0.14688    -1.36179    -0.54363
H     -0.87055    -2.64711    -2.20348
H      0.76408    -2.91906    -2.83022
