 42
-810.6678804699133
C     -3.45489    -1.57888     1.11757
O     -2.21592    -0.96745     0.81007
H     -4.25577    -0.88888     0.85948
H     -1.50168    -1.58182     1.09541
H     -3.59264    -2.50598     0.55634
H     -3.52357    -1.80250     2.18257
C      2.26010    -0.83884    -0.40610
O      2.11485    -1.27613     0.94291
H      1.29420    -0.76685    -0.90856
H      2.12392    -0.45986     1.48956
H      2.74242     0.13707    -0.44647
H      2.87594    -1.55714    -0.94284
C     -0.17589    -3.54411     0.16262
O     -0.17193    -2.62051     1.24043
H      0.79001    -4.03767     0.06017
H      0.69858    -2.15966     1.21651
H     -0.93299    -4.30260     0.35529
H     -0.40958    -3.04602    -0.78269
C     -2.34039    -0.81004    -2.52678
O     -1.42606    -0.29694    -1.58105
H     -2.00177    -0.54344    -3.52742
H     -1.78217    -0.49008    -0.68211
H     -2.39262    -1.89895    -2.45992
H     -3.34149    -0.40255    -2.37584
C      0.80409     1.60151    -3.16752
O      0.13501     1.78187    -1.93617
H      1.37883     2.49852    -3.39482
H     -0.46494     1.01561    -1.81137
H      1.48770     0.74967    -3.12801
H      0.09356     1.43456    -3.97908
C      0.44832     0.96761     2.69436
O      1.74299     1.08554     2.12286
H      0.41452     0.06194     3.29903
H      1.68045     1.76598     1.42116
H      0.23508     1.81655     3.34498
H     -0.32838     0.90356     1.92849
C      0.76812     4.03817     0.48811
O      1.41020     2.83054     0.12387
H      0.84241     4.77572    -0.31257
H      0.92843     2.46296    -0.64888
H     -0.28849     3.87169     0.71192
H      1.25344     4.44386     1.37481
