 24
-463.2288182141207
C      2.11835    -0.36670     2.07546
O      1.02803    -0.88803     1.33137
H      2.31204     0.67770     1.81733
H      1.28443    -0.85819     0.38548
H      1.87223    -0.42983     3.13426
H      3.02492    -0.94557     1.89396
C     -1.81272     0.81538    -1.91499
O     -0.63025     1.17630    -1.22680
H     -2.58392     1.57749    -1.78980
H     -0.84673     1.18047    -0.26977
H     -1.58443     0.73095    -2.97579
H     -2.20762    -0.14067    -1.56241
C     -2.29479     0.26924     1.87970
O     -1.08344     0.80040     1.37397
H     -2.28221     0.23993     2.97051
H     -0.36990     0.14699     1.53261
H     -3.11094     0.91399     1.55894
H     -2.46917    -0.74042     1.50008
C      1.26707    -1.52189    -2.20689
O      1.50245    -0.47332    -1.28570
H      2.12081    -2.19495    -2.18818
H      0.79741     0.19674    -1.40774
H      0.36695    -2.08387    -1.94463
H      1.15354    -1.13533    -3.22144
