 36
-694.8483469947865
C     -0.41413     2.29251    -1.20708
O     -0.92602     1.72383    -0.00512
H      0.35831     1.66029    -1.64348
H     -1.15143     0.79606    -0.16784
H     -1.22020     2.43471    -1.92923
H      0.00268     3.26786    -0.96068
C      2.21280    -0.21640    -0.52115
O      1.24499    -0.69784    -1.43831
H      2.81387    -1.03879    -0.12724
H      0.46753    -0.94137    -0.90717
H      2.87764     0.46632    -1.04830
H      1.75846     0.31539     0.31582
C      1.16791    -1.66399     3.02663
O      0.00574    -0.95973     2.61219
H      1.19987    -1.74948     4.11301
H      0.17204    -0.00007     2.69637
H      1.13738    -2.66487     2.59668
H      2.07454    -1.16339     2.68020
C     -0.49459    -0.45595    -4.46106
O     -0.16640    -1.61897    -3.73577
H      0.39011     0.01873    -4.89611
H      0.47222    -1.36856    -3.05731
H     -1.17042    -0.73375    -5.26932
H     -1.00253     0.28223    -3.83199
C     -1.65276    -2.31739    -0.28782
O     -0.89865    -1.18320     0.12731
H     -1.48341    -2.47423    -1.35202
H     -0.64311    -1.25765     1.07506
H     -1.33631    -3.20701     0.25812
H     -2.71723    -2.15173    -0.11676
C     -0.16339     2.78619     3.18363
O      0.33433     1.75306     2.34881
H     -1.20345     2.59879     3.46137
H     -0.09422     1.85648     1.47436
H      0.44516     2.83040     4.08503
H     -0.10667     3.75202     2.67648
