 36
-694.8572666011361
C      2.00754     0.26585    -1.49260
O      1.96217     1.43289    -0.67650
H      1.11726    -0.35546    -1.37283
H      1.11043     1.88022    -0.86632
H      2.10423     0.54268    -2.54375
H      2.88380    -0.31690    -1.21019
C     -1.13104     2.38090     0.25566
O     -0.57800     2.28141    -1.04876
H     -0.84696     1.53445     0.88599
H     -1.06330     1.55970    -1.50158
H     -0.76175     3.29907     0.71125
H     -2.21990     2.43433     0.21637
C     -0.16084    -1.94394     2.95320
O     -0.20447    -1.13829     1.79116
H      0.62830    -2.69644     2.88202
H      0.57291    -0.53378     1.81671
H      0.02057    -1.33346     3.83938
H     -1.12035    -2.44481     3.07392
C     -1.50707    -0.17217    -3.45878
O     -1.77416     0.12173    -2.10075
H     -0.44013    -0.34553    -3.62366
H     -1.56410    -0.67121    -1.56729
H     -2.05526    -1.05843    -3.78488
H     -1.82190     0.67348    -4.06812
C     -1.46315    -3.29178    -0.47655
O     -1.02005    -1.95370    -0.57563
H     -1.68003    -3.66140    -1.47762
H     -0.71848    -1.67479     0.31528
H     -0.69324    -3.92598    -0.03304
H     -2.36869    -3.36393     0.13048
C      1.85768     1.60051     2.75386
O      1.85084     0.52504     1.83175
H      1.43905     1.25488     3.69861
H      2.01494     0.90253     0.93650
H      2.87516     1.95095     2.93010
H      1.25846     2.43668     2.39066
