 42
-810.6647707808964
C     -3.92916    -1.82249     0.72413
O     -2.80352    -1.44334    -0.05507
H     -4.60415    -0.97081     0.80577
H     -2.07241    -2.06268     0.16558
H     -4.46702    -2.64647     0.25272
H     -3.62698    -2.12350     1.72905
C      2.21831    -2.14846     2.40016
O      1.00416    -1.52567     2.02608
H      2.00999    -3.16613     2.72823
H      1.24183    -0.78706     1.42615
H      2.91899    -2.18586     1.56368
H      2.68688    -1.60950     3.22635
C      0.11495    -3.12410    -0.59262
O     -0.69085    -2.97217     0.56787
H      0.69084    -2.21793    -0.78748
H     -0.11967    -2.51791     1.22516
H      0.80123    -3.96354    -0.47552
H     -0.52995    -3.32403    -1.44788
C     -1.78713     1.12490     1.74257
O     -2.20688     1.12714     0.38286
H     -1.10301     1.95923     1.90027
H     -2.49976     0.21116     0.17953
H     -2.64300     1.25852     2.40407
H     -1.27899     0.19499     1.99905
C     -0.50269     0.84111    -2.28656
O     -0.19117     1.69426    -1.18572
H     -1.12623     1.38041    -2.99732
H     -0.97359     1.63847    -0.57847
H      0.41894     0.53733    -2.78189
H     -1.03377    -0.04286    -1.93901
C      2.71603     1.24147     0.82862
O      1.72023     0.37232     0.29869
H      3.30545     0.68023     1.55466
H      1.13303     0.89871    -0.27490
H      3.37531     1.60268     0.04215
H      2.26394     2.09591     1.33517
C      2.14945     3.15961    -3.03651
O      1.99877     3.38828    -1.65034
H      1.18655     3.01296    -3.53346
H      1.16033     2.98698    -1.39706
H      2.64130     4.01941    -3.48794
H      2.76638     2.27426    -3.21705
