 42
-810.6638137556258
C     -2.17405     0.90641     0.73667
O     -1.58954    -0.09413     1.56776
H     -1.43792     1.66288     0.47025
H     -0.80604     0.30009     2.00751
H     -2.53305     0.44414    -0.18306
H     -3.01598     1.37946     1.24522
C      1.88799    -1.14888     0.14404
O      1.77379     0.26919     0.17098
H      0.90931    -1.63076     0.17144
H      1.10088     0.50729    -0.50758
H      2.42046    -1.46762    -0.75250
H      2.46348    -1.46915     1.01131
C     -0.52207    -2.51187    -2.83134
O     -1.27754    -1.58950    -2.06823
H      0.42153    -2.75421    -2.33530
H     -1.49198    -2.00759    -1.20604
H     -1.07654    -3.43639    -2.99930
H     -0.29858    -2.06341    -3.79903
C      1.86167     3.56204    -0.05928
O      2.92284     2.85990    -0.67641
H      1.82820     4.56445    -0.48410
H      2.86758     1.94791    -0.37489
H      0.89676     3.07746    -0.23368
H      2.01341     3.64987     1.01917
C     -2.86443    -3.15463     0.94416
O     -1.73809    -2.47344     0.41710
H     -2.85735    -4.18038     0.57993
H     -1.65082    -1.62937     0.91581
H     -2.82960    -3.17281     2.03505
H     -3.79618    -2.67325     0.63522
C      1.23456     0.10455     3.55767
O      0.67787     0.92306     2.54242
H      0.63819     0.22339     4.46002
H      1.21448     0.80798     1.73442
H      1.22486    -0.95076     3.27421
H      2.26213     0.39765     3.78144
C      0.30766     1.43156    -2.84873
O     -0.09103     0.78230    -1.64905
H      1.16484     2.07336    -2.64862
H     -0.58899    -0.03454    -1.87212
H      0.58801     0.70736    -3.61566
H     -0.50327     2.04913    -3.23816
