 42
-810.6643420635626
C     -3.52636     0.94899     1.97369
O     -2.12517     1.14245     1.92166
H     -3.82237     0.04544     1.43383
H     -1.87801     1.09402     0.98069
H     -3.82457     0.84623     3.01513
H     -4.05765     1.80035     1.53976
C      0.45733     0.14477     4.21700
O     -0.23059    -0.52368     3.18200
H     -0.16808     0.27378     5.10542
H     -0.91722     0.06935     2.84695
H      1.32908    -0.44961     4.49106
H      0.80239     1.13392     3.89982
C      1.56835    -2.58830    -3.28466
O      1.31713    -2.04654    -2.00077
H      2.59096    -2.96650    -3.35040
H      1.82559    -1.20664    -1.93135
H      0.88130    -3.41630    -3.45463
H      1.42141    -1.84030    -4.06697
C      3.80888     0.18750    -1.05622
O      2.60124     0.27213    -1.79348
H      4.13913    -0.85175    -1.02851
H      2.04544     0.96417    -1.37866
H      4.58680     0.78791    -1.53025
H      3.66800     0.53375    -0.03183
C     -2.32573     1.37405    -1.74918
O     -1.55169     0.81843    -0.70339
H     -1.82197     1.23545    -2.70565
H     -1.44572    -0.16145    -0.87577
H     -3.30843     0.90511    -1.78943
H     -2.44627     2.43871    -1.56022
C      1.14228     1.92447     0.91347
O      0.92973     1.92508    -0.49331
H      2.05065     2.48985     1.11673
H      0.02051     1.61095    -0.63456
H      0.31612     2.40455     1.43745
H      1.25650     0.91282     1.30801
C     -1.17708    -2.39828     0.22222
O     -1.13660    -1.71573    -1.03304
H     -2.14170    -2.20688     0.69214
H     -0.25208    -1.89973    -1.42955
H     -1.07709    -3.47175     0.06868
H     -0.38671    -2.05674     0.89141
