 42
-810.6656038140288
C     -3.39822     0.89339     2.11785
O     -2.09936     0.61134     1.64357
H     -4.15594     0.71351     1.34915
H     -1.89103     1.24185     0.94027
H     -3.60163     0.23574     2.96224
H     -3.49251     1.92944     2.45823
C      0.41786    -2.07252     2.12841
O      1.58623    -1.88788     1.34155
H      0.02424    -3.08178     2.01092
H      1.43194    -2.36993     0.50074
H      0.67832    -1.93034     3.17576
H     -0.36579    -1.36212     1.85586
C     -0.11505    -4.04364    -0.93097
O      0.86707    -3.02729    -0.96105
H      0.17185    -4.79049    -0.19169
H      0.50597    -2.30168    -1.51159
H     -1.09580    -3.64492    -0.66302
H     -0.19548    -4.53738    -1.90095
C      2.09145     1.62159    -2.32531
O      1.08372     1.34291    -1.36593
H      2.69253     2.47252    -2.00706
H      1.54577     1.11505    -0.51295
H      2.74081     0.75497    -2.45792
H      1.61086     1.85687    -3.27231
C     -1.58358    -0.75877    -1.74767
O     -0.24985    -0.93015    -2.21999
H     -1.99138     0.20301    -2.05597
H      0.23037    -0.10762    -2.02973
H     -2.20105    -1.54481    -2.18008
H     -1.63323    -0.82922    -0.65897
C      1.60732     1.41514     2.01195
O      2.15870     0.69298     0.91615
H      1.86302     2.46677     1.88939
H      2.04541    -0.26694     1.11007
H      0.52139     1.31389     2.06130
H      2.03624     1.07569     2.95418
C     -1.02028     3.72607    -0.00704
O     -1.30249     2.38161    -0.35523
H     -0.21663     3.78261     0.73020
H     -0.51733     2.02474    -0.80474
H     -0.73125     4.30647    -0.88566
H     -1.92056     4.16477     0.42011
