 24
-463.22353179056637
C      2.04827     0.41363     1.62419
O      1.06060     1.41369     1.37899
H      2.24331     0.31392     2.69257
H      0.22520     1.12486     1.77407
H      1.74044    -0.55310     1.22157
H      2.96241     0.73221     1.12762
C     -0.28856     2.06951    -1.90171
O      0.09644     0.95284    -1.11197
H     -1.27403     1.87318    -2.31957
H      0.57992     1.27936    -0.32830
H     -0.33439     2.97209    -1.29197
H      0.42028     2.22130    -2.71659
C     -1.87114    -1.04639     1.50094
O     -1.63119     0.33545     1.23156
H     -0.98191    -1.64147     1.29539
H     -1.44161     0.42812     0.29209
H     -2.13343    -1.13352     2.55398
H     -2.70067    -1.42628     0.90035
C      0.57707    -2.52717    -2.12999
O      0.42339    -1.88107    -0.87796
H     -0.33988    -2.47610    -2.72411
H      0.31610    -0.93429    -1.03805
H      1.39385    -2.09157    -2.71245
H      0.80843    -3.57520    -1.94105
