 42
-810.669957393352
C     -2.66806    -0.01022    -2.97501
O     -1.46746    -0.75744    -2.88382
H     -3.50978    -0.69962    -2.98277
H     -0.72640    -0.11751    -2.97068
H     -2.77795     0.66862    -2.12451
H     -2.69173     0.58055    -3.89138
C     -0.09708    -0.34357     4.42742
O      0.17773    -0.85845     3.13520
H      0.77333     0.20956     4.78237
H     -0.67820    -0.94394     2.65755
H     -0.95535     0.33084     4.40895
H     -0.30142    -1.15464     5.12866
C      1.75773     0.48387    -3.43335
O      0.53674     0.98278    -2.91021
H      2.53766     1.24593    -3.39574
H      0.73306     1.34558    -2.02098
H      2.09674    -0.39040    -2.87049
H      1.60394     0.19685    -4.47219
C      0.26327    -2.09139    -0.42690
O     -1.14912    -2.09019    -0.60495
H      0.73801    -2.81787    -1.08808
H     -1.32569    -1.67180    -1.47562
H      0.69666    -1.10658    -0.61271
H      0.48965    -2.36810     0.60241
C     -2.04482     0.51834     1.08754
O     -1.99257    -0.81431     1.57691
H     -1.80318     1.20821     1.89741
H     -1.81999    -1.37908     0.79174
H     -1.34377     0.67438     0.26713
H     -3.05215     0.75407     0.74200
C      0.73831     3.07931     0.01563
O      1.12486     1.81169    -0.48226
H      0.46976     3.72517    -0.81949
H      1.43569     1.27975     0.28095
H     -0.12500     2.98735     0.67841
H      1.55226     3.54634     0.57247
C      3.13038    -0.33303     1.57405
O      1.93478     0.42705     1.61846
H      3.87195     0.20940     0.98939
H      1.30595    -0.03736     2.21644
H      3.52625    -0.49475     2.57789
H      2.95972    -1.30666     1.10875
