 36
-694.8542210396479
C      2.45220     1.38476    -0.75767
O      1.58663     1.43570     0.36538
H      2.28941     0.47482    -1.33599
H      0.69205     1.65890     0.04056
H      2.29854     2.24364    -1.41337
H      3.48275     1.41166    -0.40632
C     -0.70148     2.20516    -2.13483
O     -0.81175     1.90743    -0.74616
H     -1.67992     2.19049    -2.61763
H     -1.28920     1.06917    -0.64930
H     -0.28913     3.20785    -2.22607
H     -0.04474     1.49731    -2.63932
C     -1.12743     0.87303     2.86931
O     -0.90886    -0.44152     2.36336
H     -2.19848     1.06676     2.88019
H      0.06265    -0.60702     2.41847
H     -0.74865     0.95882     3.88714
H     -0.63768     1.62135     2.24452
C      0.16390    -2.19304    -2.95339
O      0.34899    -1.04040    -2.14970
H      0.90103    -2.16696    -3.75522
H     -0.32107    -1.02709    -1.45181
H      0.31027    -3.11453    -2.38147
H     -0.83307    -2.21943    -3.40454
C     -3.01877    -1.14781    -0.14773
O     -1.65164    -0.77445    -0.12448
H     -3.65286    -0.29434     0.10246
H     -1.37070    -0.69908     0.82484
H     -3.26566    -1.49556    -1.14835
H     -3.21139    -1.94974     0.56506
C      1.98054    -1.77087     1.23624
O      1.71793    -0.64721     2.06783
H      1.78565    -1.54305     0.18790
H      1.80706     0.15036     1.50832
H      3.01787    -2.08938     1.34979
H      1.33938    -2.59724     1.54459
