 54
-1042.2843554204983
C      3.19683     0.58405     0.16468
O      2.09036     1.46922     0.26304
H      3.63840     0.48411     1.15361
H      1.81288     1.73555    -0.64696
H      2.87793    -0.39602    -0.18569
H      3.94748     0.98818    -0.51419
C     -1.92405     3.11010    -0.52258
O     -1.58134     2.42566    -1.73163
H     -1.70080     2.49991     0.35048
H     -1.90317     1.51541    -1.64683
H     -1.34389     4.02656    -0.46201
H     -2.98337     3.36475    -0.52522
C     -0.45210    -0.73357    -1.75227
O     -1.51268    -0.23701    -0.92290
H     -0.78140    -1.64942    -2.24160
H     -1.08717     0.10890    -0.10112
H     -0.20738    -0.00666    -2.52634
H      0.43143    -0.94455    -1.15464
C     -0.81204    -4.56808     1.88877
O     -0.49831    -3.92005     0.66961
H     -1.67531    -5.22649     1.77347
H     -1.31123    -3.46378     0.36378
H      0.04308    -5.16876     2.19585
H     -1.03145    -3.84183     2.67483
C      2.85234    -3.30379    -0.06516
O      1.83975    -2.53209     0.54632
H      2.58686    -3.58576    -1.08892
H      1.01950    -3.05691     0.56082
H      3.76591    -2.70927    -0.10075
H      3.06110    -4.21580     0.50163
C     -3.48301    -3.08333    -1.14721
O     -2.63985    -2.54989    -0.14228
H     -3.83528    -4.06027    -0.82021
H     -2.38051    -1.64670    -0.41891
H     -4.35004    -2.44188    -1.31517
H     -2.94875    -3.20495    -2.09235
C      0.34230     3.47736     2.63570
O      0.75228     3.80791     1.32250
H      1.18073     3.13279     3.24791
H      1.29141     3.08510     0.97909
H     -0.07577     4.37140     3.09759
H     -0.42358     2.69940     2.63387
C     -0.24574    -0.56631     2.22217
O     -0.25247     0.50306     1.27611
H     -1.03022    -1.27501     1.96319
H      0.66024     0.79179     1.08795
H      0.70802    -1.09188     2.22823
H     -0.45348    -0.17630     3.22090
C      1.47195     3.76251    -2.22066
O      1.09007     2.41328    -1.97523
H      1.26962     4.38936    -1.35164
H      0.10553     2.40363    -1.93108
H      2.53826     3.78787    -2.44075
H      0.93237     4.16662    -3.07813
