 60
-1158.0905365887095
C     -3.21216     3.56520     0.01230
O     -2.69822     2.29480     0.38113
H     -3.02480     4.31767     0.78324
H     -1.74079     2.36252     0.46401
H     -2.78514     3.91579    -0.93279
H     -4.28803     3.46175    -0.11408
C      1.03313     2.62279    -0.56197
O      0.26007     1.92133     0.41746
H      1.94029     2.06681    -0.80038
H      0.82471     1.80577     1.21230
H      0.42903     2.70733    -1.46417
H      1.29543     3.61515    -0.20667
C      4.40476    -0.36008     0.81355
O      3.25258    -0.64568     1.60454
H      4.66658     0.69141     0.93619
H      2.68900    -1.25651     1.07472
H      5.24404    -0.97415     1.13896
H      4.20558    -0.55200    -0.24072
C     -2.96558    -4.50078    -0.72965
O     -1.58509    -4.20394    -0.67348
H     -3.20073    -5.18362    -1.55044
H     -1.32810    -3.86680    -1.55101
H     -3.26041    -4.97316     0.20690
H     -3.56686    -3.59428    -0.86254
C     -1.50205    -0.90674     0.43068
O     -0.55248    -0.44201    -0.53735
H     -1.03458    -1.04089     1.40578
H     -0.25247     0.44214    -0.23313
H     -2.31543    -0.19532     0.54354
H     -1.89469    -1.86503     0.10590
C      1.31065    -3.36493     0.82686
O      1.70822    -2.19512     0.11017
H      0.73202    -4.03557     0.19727
H      0.91630    -1.76779    -0.24711
H      2.21274    -3.87433     1.16068
H      0.71536    -3.09792     1.70129
C     -2.99348     0.03149    -2.80213
O     -1.69444    -0.51298    -2.97794
H     -3.73928    -0.76775    -2.78253
H     -1.21530    -0.38701    -2.13922
H     -3.06575     0.60588    -1.87906
H     -3.22053     0.68432    -3.64351
C      0.37608    -3.00885    -3.42703
O     -0.99777    -3.10439    -3.07735
H      0.53133    -2.24534    -4.19017
H     -1.38070    -2.20630    -3.14091
H      0.98485    -2.75812    -2.55584
H      0.70403    -3.96838    -3.82204
C      0.96616     4.72118     2.60035
O      2.21676     4.24854     2.15042
H      0.13096     4.23734     2.08667
H      2.27502     3.31416     2.37993
H      0.83878     4.57497     3.67574
H      0.91988     5.78866     2.39553
C      1.27122     0.97097     3.66414
O      1.94484     1.42064     2.49064
H      1.71820     1.42979     4.54597
H      2.51312     0.66658     2.16989
H      0.21737     1.24863     3.60963
H      1.34874    -0.11044     3.74249
