 30
-579.0445184432629
C      3.06217     0.81660    -1.08425
O      2.00375     1.41580    -0.35059
H      3.90303     0.58545    -0.42960
H      1.87512     0.86439     0.45198
H      2.73126    -0.10740    -1.56495
H      3.39528     1.51690    -1.84751
C     -1.06440     2.48784    -1.06496
O     -0.30398     1.46795    -1.68958
H     -1.41234     2.16666    -0.07927
H      0.58549     1.49118    -1.26997
H     -0.47372     3.39568    -0.94250
H     -1.92594     2.71574    -1.69007
C      1.03649     0.36107     2.85315
O      1.56031    -0.25572     1.69370
H      1.76530     1.07697     3.22869
H      0.91749    -0.93624     1.40128
H      0.10488     0.89198     2.63565
H      0.84618    -0.37403     3.63648
C     -1.43355    -2.23246     1.65310
O     -0.32806    -1.94444     0.81707
H     -1.33238    -1.70402     2.60375
H     -0.68880    -1.65100    -0.04681
H     -2.36924    -1.92386     1.18587
H     -1.47891    -3.30270     1.86023
C     -2.78473    -0.87274    -1.62128
O     -1.39127    -0.94877    -1.40009
H     -3.00504    -0.45627    -2.60573
H     -1.00788    -0.06752    -1.60321
H     -3.19874    -1.87870    -1.57324
H     -3.27454    -0.25331    -0.86463
