 36
-694.8460599388503
C      0.41336     0.77974     1.71779
O      1.24125     1.12483     0.61311
H      0.32140     1.61958     2.40783
H      0.72526     1.75089     0.06110
H     -0.58613     0.49384     1.38839
H      0.86157    -0.05239     2.25401
C     -0.89100     3.82899    -0.24177
O     -0.45703     2.62066    -0.83631
H     -1.36022     3.64884     0.72834
H     -1.23455     2.02388    -0.89490
H     -0.02878     4.47828    -0.09898
H     -1.60939     4.34535    -0.88198
C      2.44439    -2.45460     2.03380
O      1.49047    -2.37969     3.09339
H      3.07206    -3.34259     2.12902
H      1.97033    -2.32517     3.91999
H      1.90212    -2.51426     1.09489
H      3.07894    -1.56552     2.00431
C     -1.17206    -2.34766     0.47910
O     -1.01837    -1.48850    -0.63758
H     -0.68842    -3.30932     0.29894
H     -0.05807    -1.39603    -0.81820
H     -0.74672    -1.91055     1.38330
H     -2.23395    -2.52528     0.63997
C     -3.20355     0.68154    -2.03997
O     -2.39143     0.77160    -0.88260
H     -2.62169     0.35866    -2.90662
H     -1.93926    -0.09529    -0.76709
H     -4.02049    -0.02500    -1.88392
H     -3.62870     1.66321    -2.24823
C      1.78925    -0.35029    -2.28388
O      1.59172    -0.96149    -1.01329
H      2.85369    -0.27465    -2.50825
H      1.64028    -0.24033    -0.34777
H      1.31645    -0.96524    -3.05001
H      1.34861     0.64783    -2.30694
