 60
-1158.0945827968874
C     -0.43230    -2.27155    -1.90493
O     -0.09955    -2.95269    -0.70315
H      0.29909    -2.48748    -2.68596
H      0.77939    -2.64361    -0.42671
H     -1.40401    -2.62690    -2.24697
H     -0.49146    -1.19017    -1.75568
C     -1.73540     3.98354     1.21551
O     -2.90179     3.28205     0.83918
H     -1.40092     3.70536     2.21924
H     -2.68169     2.34020     0.86962
H     -0.90927     3.81216     0.52079
H     -1.96133     5.04925     1.22388
C      3.31021     1.01349     1.46813
O      1.97087     0.60502     1.23374
H      3.77970     0.31519     2.15901
H      1.61639     1.22095     0.53306
H      3.87876     1.02752     0.53786
H      3.33463     2.00694     1.91227
C     -2.28268    -4.46370     1.35374
O     -2.34633    -3.17274     0.78638
H     -1.45983    -4.54725     2.07196
H     -1.53121    -3.04271     0.26983
H     -3.21719    -4.65983     1.87874
H     -2.14643    -5.23699     0.59300
C      3.39636    -2.51825     0.56461
O      2.25222    -1.86453     0.03488
H      3.18322    -2.94629     1.54640
H      2.08138    -1.06386     0.56459
H      3.67365    -3.31551    -0.11974
H      4.23157    -1.82314     0.65191
C     -3.43063    -0.14192     0.69537
O     -2.22509     0.62124     0.66159
H     -4.26961     0.54648     0.79415
H     -1.58916     0.26835     1.33324
H     -3.53750    -0.71308    -0.22945
H     -3.42235    -0.83863     1.53040
C      2.11742     0.17140    -3.31274
O      3.04652    -0.02303    -2.25934
H      2.54802     0.88465    -4.01435
H      2.72557    -0.71922    -1.67767
H      1.92708    -0.75386    -3.86419
H      1.16502     0.57197    -2.95692
C     -2.10393     2.31277    -2.29374
O     -1.18979     1.42442    -1.66704
H     -3.06963     1.82831    -2.44656
H     -1.63139     1.07334    -0.86630
H     -2.25669     3.21298    -1.70057
H     -1.70321     2.58615    -3.26886
C      1.92791     3.02266    -1.38349
O      1.09765     2.20132    -0.57621
H      1.35559     3.47924    -2.19073
H      0.28216     1.96103    -1.07407
H      2.34546     3.82121    -0.77126
H      2.73812     2.42891    -1.80141
C     -0.33469    -1.58137     2.81533
O     -0.46744    -0.23045     2.37782
H      0.20140    -1.62072     3.76513
H      0.41748     0.11216     2.16243
H     -1.32489    -2.00225     2.95836
H      0.19467    -2.19195     2.08344
