 36
-694.8513862721444
C     -0.36013     2.64011    -1.53256
O     -1.57330     1.93698    -1.72744
H     -0.50031     3.51616    -0.89301
H     -1.83973     1.57843    -0.87351
H      0.41186     2.00467    -1.09184
H     -0.00873     2.98204    -2.50435
C      3.70708     0.61096     0.68725
O      2.30064     0.64617     0.53482
H      4.02501     1.52091     1.19097
H      2.05769    -0.06828    -0.09425
H      4.01760    -0.25152     1.28375
H      4.20669     0.55707    -0.28242
C     -1.75610    -1.40848    -2.23496
O     -1.19165    -1.49918    -0.92753
H     -1.46282    -0.48121    -2.72529
H     -1.61071    -0.82050    -0.37171
H     -1.40094    -2.25646    -2.81901
H     -2.84436    -1.45507    -2.18213
C      2.02580    -2.65713    -0.76846
O      1.47165    -1.37131    -0.96593
H      1.89748    -2.98078     0.26764
H      0.49401    -1.45814    -0.96459
H      1.55699    -3.39302    -1.42233
H      3.08982    -2.62244    -0.99553
C      0.28729    -0.90884     2.59063
O      0.14826     0.43141     2.12938
H      1.27722    -1.06797     3.01817
H      0.96211     0.64455     1.62702
H     -0.45850    -1.09012     3.36291
H      0.13847    -1.62448     1.77969
C     -3.19065     0.97408     1.50369
O     -2.07296     0.60341     0.71469
H     -2.98372     1.89738     2.04509
H     -1.26910     0.64105     1.28616
H     -4.03794     1.13154     0.84046
H     -3.43762     0.18582     2.21735
