 54
-1042.2810587510432
C      1.05052    -3.83996    -0.58820
O      0.92913    -2.76135     0.32639
H      0.86224    -4.76864    -0.05154
H      1.07851    -1.93032    -0.16364
H      0.33246    -3.74634    -1.40239
H      2.05838    -3.89038    -1.00584
C     -1.66277    -1.08262    -3.44364
O     -1.03441    -1.84004    -2.42290
H     -2.15616    -0.19645    -3.03609
H     -0.35073    -1.29405    -2.01611
H     -0.94953    -0.76173    -4.20709
H     -2.41610    -1.70955    -3.91848
C      2.36137     0.00346    -1.53482
O      1.10663    -0.40222    -0.98711
H      3.07406     0.22502    -0.74298
H      0.76810     0.31839    -0.41935
H      2.73844    -0.81721    -2.14261
H      2.23673     0.88272    -2.16387
C      4.06435     3.39004    -1.97731
O      2.77522     3.42180    -1.40732
H      4.42670     2.36385    -2.09808
H      2.82935     2.99984    -0.53968
H      4.01738     3.85247    -2.96258
H      4.79238     3.93664    -1.36936
C     -2.30881    -3.25026     0.85062
O     -1.36688    -2.53645     1.64289
H     -3.30528    -2.85019     1.04104
H     -0.48351    -2.67448     1.22514
H     -2.08561    -3.16353    -0.21239
H     -2.31189    -4.30385     1.12943
C     -4.03332    -0.29621    -0.65203
O     -3.58192     0.85577     0.02954
H     -4.52462     0.02305    -1.57071
H     -3.03851     0.56666     0.77207
H     -3.21337    -0.96792    -0.91787
H     -4.76743    -0.85027    -0.05925
C     -0.62378     2.48072     0.02458
O      0.05541     1.42244     0.71271
H     -1.12640     3.12262     0.74532
H     -0.61423     0.93083     1.23583
H      0.11578     3.06067    -0.52481
H     -1.36294     2.08038    -0.66573
C      3.19996     2.55557     2.30987
O      2.75077     2.07404     1.05207
H      3.98527     3.28959     2.13287
H      1.82339     1.80301     1.13060
H      2.38710     3.03405     2.86033
H      3.60807     1.74066     2.91098
C     -1.95501     0.22443     3.44118
O     -1.75984    -0.00754     2.05519
H     -2.91174    -0.19109     3.75663
H     -1.64695    -0.99232     1.92094
H     -1.15650    -0.23341     4.02558
H     -1.95917     1.29867     3.61885
