 48
-926.4789741743003
C      1.55191    -1.54950     2.14683
O      0.82527    -2.13926     1.07485
H      1.79493    -0.50578     1.94814
H      1.12888    -1.71266     0.24729
H      0.94796    -1.60935     3.05246
H      2.47289    -2.10893     2.32227
C     -4.68700    -1.22906     0.13413
O     -3.41367    -1.43796    -0.44619
H     -5.38344    -0.93073    -0.64789
H     -2.79885    -1.70073     0.27322
H     -5.05666    -2.14487     0.59930
H     -4.65334    -0.44459     0.89442
C     -1.57747    -0.92279    -3.14451
O     -2.19595     0.04969    -2.30193
H     -0.50685    -0.97369    -2.93309
H     -2.74038    -0.44747    -1.65366
H     -2.01391    -1.90529    -2.96961
H     -1.72173    -0.64549    -4.18742
C      2.38829     2.98786    -2.20605
O      1.82243     2.89230    -0.91196
H      2.51215     2.00030    -2.65730
H      0.94811     2.47043    -1.02086
H      1.76078     3.59317    -2.86279
H      3.36444     3.46097    -2.12047
C     -0.87365     1.34188     0.34334
O     -0.34326     1.35660    -0.99057
H     -0.05557     1.38286     1.05975
H     -1.03964     0.95620    -1.57022
H     -1.51135     2.21162     0.48298
H     -1.45569     0.43790     0.51332
C     -2.08101    -3.03051     2.46683
O     -1.75496    -2.04670     1.50477
H     -1.73583    -4.01920     2.15934
H     -0.78538    -2.11650     1.32771
H     -1.63269    -2.78879     3.43234
H     -3.16286    -3.06473     2.59493
C      3.00806    -0.40600    -0.91543
O      1.62790    -0.72192    -1.05038
H      3.15957     0.61790    -0.58186
H      1.10559     0.09346    -1.07588
H      3.45678    -1.07960    -0.18492
H      3.51609    -0.55847    -1.86921
C      3.27382     3.03773     2.37689
O      2.55509     2.06277     1.64830
H      4.28647     3.16951     1.98170
H      2.36439     2.41906     0.76743
H      2.76988     4.00914     2.36269
H      3.35017     2.70655     3.41334
