 24
-463.2237577252628
C      1.94066     0.97676     1.57937
O      1.64899    -0.39997     1.33069
H      1.11309     1.61208     1.26499
H      1.54588    -0.51789     0.38073
H      2.10001     1.08702     2.65081
H      2.84710     1.28737     1.05457
C     -0.95873     2.42045    -2.00913
O     -0.16416     1.91268    -0.95093
H     -1.10095     3.48717    -1.83902
H     -0.02957     0.96771    -1.10173
H     -0.47498     2.28305    -2.98009
H     -1.94080     1.93805    -2.03830
C     -2.06832    -0.27373     1.46604
O     -1.10231    -1.30224     1.26372
H     -2.95687    -0.55046     0.90290
H     -0.28495    -1.05584     1.72163
H     -2.33305    -0.19138     2.52065
H     -1.70325     0.69065     1.10908
C      0.38222    -2.12369    -1.87659
O      0.07843    -0.94643    -1.14293
H      1.19943    -1.89637    -2.55731
H     -0.49020    -1.20003    -0.38905
H      0.69006    -2.92504    -1.20299
H     -0.48143    -2.45534    -2.45553
