 60
-1158.0969803579687
C     -0.12577     1.56971    -4.00288
O     -0.32106     0.42247    -3.19630
H     -0.01625     1.25322    -5.03769
H     -0.08236     0.66463    -2.28005
H     -0.97700     2.25229    -3.93596
H      0.77371     2.11386    -3.71512
C      4.96760    -0.40333    -0.48206
O      3.65827     0.08849    -0.27205
H      5.17241    -1.26163     0.16221
H      3.03153    -0.66034    -0.39732
H      5.11103    -0.70432    -1.52139
H      5.68204     0.38559    -0.25205
C      0.94984     2.29151    -0.43939
O      0.09144     1.16981    -0.65096
H      0.83328     2.68689     0.56729
H      0.13630     0.55318     0.09304
H      1.99395     2.02625    -0.60132
H      0.66921     3.07045    -1.14850
C     -3.05377    -3.10689    -0.71226
O     -2.71855    -1.75704    -0.42832
H     -2.27679    -3.56342    -1.32766
H     -2.78889    -1.24348    -1.27658
H     -3.13808    -3.65400     0.22415
H     -4.00331    -3.16139    -1.24146
C     -0.54571    -1.44839     2.18844
O     -0.37273    -1.42069     0.77321
H      0.40983    -1.22481     2.65780
H     -1.25212    -1.55565     0.35756
H     -1.27035    -0.70341     2.50939
H     -0.87629    -2.43802     2.50660
C      3.82720     0.55518     2.91646
O      3.08114     1.33397     1.99561
H      3.91547    -0.47572     2.57146
H      3.28459     0.96920     1.10789
H      4.83014     0.96658     3.04592
H      3.32675     0.55644     3.88543
C     -3.36326     0.98035    -2.29905
O     -2.84384    -0.31456    -2.61333
H     -3.65896     1.49390    -3.21347
H     -1.95196    -0.16587    -2.98986
H     -4.23924     0.87298    -1.66507
H     -2.61955     1.58402    -1.77809
C      1.50205    -2.25367    -1.80847
O      1.89324    -1.86478    -0.49933
H      2.30218    -2.00954    -2.50696
H      1.07397    -1.76555     0.02687
H      1.32324    -3.32976    -1.84737
H      0.59740    -1.73733    -2.12493
C     -3.17347     1.30951     1.46079
O     -4.13618     0.37749     1.00768
H     -2.23461     1.25000     0.90489
H     -3.67779    -0.40887     0.69643
H     -3.57854     2.31429     1.33952
H     -2.95966     1.17051     2.52380
C      0.51937     1.63864     4.23375
O      0.49392     1.50387     2.82838
H     -0.42729     2.06727     4.56062
H      1.41747     1.46513     2.51332
H      0.64029     0.66846     4.72859
H      1.32062     2.30032     4.57154
