 36
-694.8500926232858
C     -1.30338     3.44317    -1.88428
O     -0.70133     2.38483    -1.15463
H     -2.07137     3.06823    -2.56538
H     -1.38944     1.96600    -0.60206
H     -1.76032     4.16852    -1.20716
H     -0.52988     3.94499    -2.46311
C     -0.89647    -2.68106    -0.45579
O     -1.03212    -1.26600    -0.49746
H      0.10656    -2.96436    -0.13581
H     -0.40641    -0.90329    -1.17378
H     -1.62404    -3.07070     0.25165
H     -1.09228    -3.11154    -1.43800
C      3.12138    -2.67759     1.85253
O      2.57825    -1.98920     0.74313
H      3.67466    -2.00415     2.51369
H      1.93707    -1.34034     1.07509
H      2.34349    -3.17403     2.44071
H      3.80876    -3.43791     1.48232
C      1.99774    -0.05064    -1.88950
O      0.58476     0.04067    -2.06443
H      2.51279     0.51620    -2.66529
H      0.29544     0.95644    -1.89660
H      2.29303     0.31830    -0.90815
H      2.28535    -1.09564    -1.96863
C      0.74219     1.14618     1.51154
O      0.56420    -0.26042     1.59777
H      1.19148     1.43100     0.56182
H     -0.12039    -0.53247     0.96793
H     -0.20574     1.67064     1.62260
H      1.40510     1.44465     2.32103
C     -2.88224     0.86857     1.63344
O     -2.48699     0.93546     0.27034
H     -2.06686     0.49049     2.25123
H     -2.23129     0.04181    -0.01704
H     -3.14232     1.87437     1.95763
H     -3.75284     0.22238     1.75343
