 48
-926.4728686455984
C     -0.37195    -0.32378     2.70476
O     -0.15132    -0.84754     1.40041
H     -1.38909    -0.52978     3.04304
H     -0.49336    -1.77476     1.39323
H      0.32045    -0.77327     3.41844
H     -0.20867     0.75140     2.69671
C      0.44197     2.64560    -2.48043
O      0.26347     1.23722    -2.58439
H     -0.17843     3.15939    -3.21734
H     -0.35876     0.95019    -1.89036
H      0.19534     3.00264    -1.48159
H      1.48563     2.88369    -2.68653
C     -4.11599    -1.98761    -0.48467
O     -2.77097    -2.21278    -0.88547
H     -4.21683    -1.02834     0.02555
H     -2.36215    -1.35790    -1.08617
H     -4.77999    -2.00547    -1.34856
H     -4.41171    -2.78039     0.20195
C      2.13559    -1.31465    -1.64971
O      2.50131     0.04508    -1.83346
H      3.04053    -1.91503    -1.57795
H      1.75056     0.47560    -2.29914
H      1.55548    -1.44515    -0.73280
H      1.54560    -1.68388    -2.48973
C     -0.33976    -4.19352     0.51059
O     -1.21850    -3.21988     1.05374
H     -0.88581    -5.09973     0.24931
H     -1.86686    -2.98921     0.35324
H      0.16557    -3.81794    -0.38240
H      0.40915    -4.43686     1.26166
C     -2.21561     1.24228     0.02524
O     -1.36313     0.29906    -0.61238
H     -1.67975     2.16156     0.24700
H     -0.79058    -0.08158     0.09254
H     -3.05363     1.45820    -0.63867
H     -2.60327     0.83756     0.95989
C      3.03624     0.45746     1.47387
O      2.54979     1.35577     0.49495
H      2.31047    -0.33019     1.67042
H      2.61187     0.91815    -0.38093
H      3.97983     0.00566     1.16246
H      3.22127     1.00984     2.39527
C      0.94021     4.07670     1.74072
O      0.43675     2.89120     1.16044
H      1.68620     4.55800     1.10090
H      1.19238     2.33904     0.88406
H      0.11316     4.77247     1.88235
H      1.40007     3.88653     2.71646
