 18
-347.40205192551457
C     -1.42904     1.96994    -0.35636
O     -0.58608     1.64591     0.73446
H     -1.75558     1.07316    -0.88909
H      0.25383     1.33985     0.37455
H     -2.30598     2.48118     0.04009
H     -0.93227     2.63386    -1.06933
C     -1.69094    -1.71301     0.26557
O     -0.69093    -1.94950    -0.72200
H     -1.38761    -0.83556     0.82769
H     -0.97921    -2.67069    -1.28250
H     -2.66453    -1.51283    -0.18968
H     -1.78334    -2.55847     0.95100
C      2.40008    -0.57348     0.08524
O      2.13866     0.82550    -0.02400
H      1.80533    -1.07019    -0.67482
H      2.65352     1.28392     0.63999
H      3.45576    -0.78977    -0.08637
H      2.09950    -0.94730     1.06542
