 60
-1158.0977325793904
C      2.34377    -2.60173     0.52316
O      2.28031    -1.83939     1.72239
H      2.58563    -1.97298    -0.33416
H      1.83582    -1.00410     1.48130
H      3.12164    -3.35416     0.63438
H      1.39814    -3.11337     0.32768
C     -0.06078    -1.70230     3.99924
O      0.36315    -2.87152     3.31907
H      0.15808    -0.81263     3.40463
H      1.17782    -2.62426     2.83210
H     -1.13690    -1.75345     4.17167
H      0.44042    -1.61363     4.96412
C      1.73246     1.34633     0.46146
O      0.88460     0.27549     0.87016
H      1.29556     2.30576     0.73029
H      0.22119     0.10285     0.18632
H      2.68291     1.24474     0.98452
H      1.92931     1.31941    -0.60893
C     -2.67425    -0.38098     1.33018
O     -2.64303     0.68325     0.38960
H     -3.10036    -1.28734     0.90253
H     -2.12854     0.36822    -0.37732
H     -1.67716    -0.62472     1.69938
H     -3.29234    -0.07172     2.17099
C      3.52308    -0.23022    -3.49594
O      2.30157    -0.32576    -2.77816
H      4.06986     0.68504    -3.24917
H      1.76478     0.45664    -2.96226
H      4.14251    -1.08277    -3.21947
H      3.35692    -0.26267    -4.57669
C     -0.66360    -1.56588    -1.71346
O     -0.93167    -0.18662    -1.43267
H     -1.21031    -1.87841    -2.60242
H     -0.48263     0.37697    -2.08869
H      0.40041    -1.72008    -1.88157
H     -0.98554    -2.16889    -0.86642
C     -1.64031    -4.93938     1.35602
O     -1.33994    -3.55637     1.28773
H     -0.73365    -5.54816     1.42419
H     -0.77487    -3.34724     2.05351
H     -2.27400    -5.17041     2.21736
H     -2.17470    -5.22295     0.44898
C     -0.42896     2.11208    -4.03746
O      0.30721     1.77023    -2.87179
H     -0.27777     1.33254    -4.78211
H      0.16005     2.49131    -2.21234
H     -1.49505     2.18954    -3.81566
H     -0.08447     3.06205    -4.44494
C     -0.85985     2.70079     2.47329
O     -1.31150     2.86960     1.14101
H     -0.33326     1.75402     2.59340
H     -1.88019     2.10038     0.91352
H     -0.18286     3.51887     2.71475
H     -1.69724     2.73185     3.17187
C     -0.88318     4.85158    -1.50313
O     -0.20847     3.66545    -1.11787
H     -0.62537     5.67142    -0.83184
H     -0.58168     3.38850    -0.24507
H     -0.57887     5.12223    -2.51436
H     -1.96574     4.71124    -1.48630
