 60
-1158.0947701080695
C      3.96992    -3.77033     0.78786
O      3.09578    -2.68857     0.53935
H      3.68735    -4.59950     0.14030
H      3.31510    -1.98365     1.16889
H      5.01098    -3.50818     0.57378
H      3.91278    -4.11053     1.82578
C      0.67875     1.98513     2.05747
O      1.18345     0.69244     1.74557
H      0.22936     1.95299     3.04858
H      1.56911     0.73140     0.82872
H      1.48215     2.72177     2.06190
H     -0.08399     2.29566     1.34300
C      0.75612     4.37032    -1.05673
O      0.57430     2.98638    -1.28785
H      0.74947     4.59108     0.01448
H     -0.36897     2.76806    -1.11343
H      1.71458     4.67380    -1.47410
H     -0.03031     4.95677    -1.53424
C     -0.52412    -2.80011    -2.63981
O     -1.09866    -1.50908    -2.67815
H     -0.62330    -3.30609    -3.60318
H     -1.94790    -1.54103    -2.22144
H      0.54009    -2.71399    -2.41062
H     -0.97805    -3.42789    -1.86820
C     -0.50887    -2.10759     1.03835
O     -0.88611    -1.01215     1.88425
H     -0.21443    -1.76379     0.04652
H     -0.10041    -0.42809     1.94726
H      0.32040    -2.66064     1.47333
H     -1.36564    -2.77200     0.93506
C     -2.58011     1.98356    -2.04670
O     -1.95973     2.33320    -0.81110
H     -3.66656     1.98505    -1.95004
H     -2.23395     1.66586    -0.15603
H     -2.31045     2.72774    -2.79480
H     -2.25519     1.00376    -2.39401
C     -3.70656     0.80699     1.88716
O     -2.79672     0.39514     0.88507
H     -4.27455    -0.04756     2.25468
H     -2.08613    -0.15773     1.32355
H     -3.17672     1.26789     2.72113
H     -4.39284     1.53654     1.45881
C     -4.77912    -1.01809    -1.78877
O     -3.50242    -1.28849    -1.23669
H     -4.68882    -0.41677    -2.69710
H     -3.33994    -0.67285    -0.50462
H     -5.26502    -1.95783    -2.04460
H     -5.41509    -0.48212    -1.07976
C      4.52503     0.34647     1.80565
O      3.65821    -0.65258     2.32770
H      4.80885     1.05278     2.58778
H      2.79750    -0.24090     2.48164
H      5.42416    -0.14811     1.44291
H      4.05690     0.88377     0.98302
C      1.92149    -0.08148    -1.61655
O      2.15698     0.96528    -0.67571
H      0.86001    -0.22236    -1.81649
H      1.67333     1.76215    -0.98898
H      2.42440     0.14350    -2.55627
H      2.33251    -1.00247    -1.21213
