 30
-579.0367340227904
C      2.40474     1.08552     1.04383
O      1.31773     0.21300     0.79409
H      2.35626     1.96072     0.39305
H      0.48898     0.66025     1.09183
H      2.40560     1.41886     2.08270
H      3.32958     0.54906     0.84578
C     -1.08535     2.78639     1.43617
O     -0.96181     1.37723     1.35188
H     -0.85703     3.26683     0.48198
H     -1.56454     1.08437     0.63022
H     -2.09757     3.06421     1.73112
H     -0.39597     3.15639     2.19227
C      2.55460    -3.05654     1.03654
O      1.24745    -2.58025     0.80601
H      3.22501    -2.79989     0.20967
H      1.25846    -1.62005     0.90657
H      2.97982    -2.65776     1.96192
H      2.51483    -4.14120     1.11974
C     -2.89780     1.57432    -1.70097
O     -2.24285     0.64891    -0.85246
H     -3.36916     1.06563    -2.54325
H     -1.48937     0.26195    -1.34498
H     -3.67117     2.07994    -1.12587
H     -2.19728     2.31979    -2.08512
C     -0.07297    -1.74829    -2.15286
O      0.05166    -0.35978    -1.84335
H     -0.30789    -2.32787    -1.26176
H      0.70102    -0.26121    -1.13359
H     -0.87701    -1.85531    -2.87965
H      0.84965    -2.12547    -2.59612
