 36
-694.8537307672366
C     -2.15296     1.82883    -0.19507
O     -1.34929     0.67425    -0.04468
H     -2.96697     1.63948    -0.89577
H     -0.82807     0.53445    -0.87859
H     -2.57741     2.08784     0.77315
H     -1.55979     2.67098    -0.55524
C      2.14325     2.25355    -0.24194
O      2.28655     0.98809    -0.87570
H      1.41783     2.20448     0.57139
H      2.38290     0.32646    -0.15060
H      3.09917     2.59084     0.15740
H      1.80058     2.97969    -0.97928
C      1.54629    -1.91134     0.57175
O      2.15461    -0.74484     1.12767
H      1.42058    -1.78519    -0.50548
H      1.50515    -0.34166     1.73430
H      2.19375    -2.77052     0.74064
H      0.57070    -2.10240     1.01619
C     -2.07523    -2.70888    -0.61501
O     -2.17006    -1.97649     0.59258
H     -2.14284    -3.76948    -0.37643
H     -2.00701    -1.04838     0.38429
H     -2.88436    -2.45821    -1.30644
H     -1.12241    -2.53162    -1.12277
C     -0.10283     1.04328    -3.42399
O      0.07074     0.35817    -2.19418
H     -1.15840     1.03094    -3.68999
H      0.97115     0.57369    -1.85044
H      0.22944     2.08105    -3.34732
H      0.46039     0.55354    -4.21903
C     -0.75628    -0.31069     3.24000
O      0.01366     0.42373     2.30127
H     -0.14346    -0.48482     4.12265
H     -0.52559     0.55539     1.50132
H     -1.64487     0.24971     3.54174
H     -1.07512    -1.26974     2.83223
