 60
-1158.098708346804
C      0.36206     3.86475     1.76471
O      0.31402     4.14711     0.36899
H      1.15615     4.45736     2.21598
H     -0.61714     4.02937     0.08723
H     -0.57976     4.12989     2.24274
H      0.55970     2.80647     1.94686
C      0.84429    -0.79825     2.20393
O      1.08975     0.11104     1.13900
H      1.75940    -0.96895     2.77624
H      1.59417    -0.35035     0.44647
H      0.09163    -0.38193     2.86902
H      0.47368    -1.75634     1.84037
C      3.20843     2.53919    -0.18806
O      2.12554     2.83374    -1.05784
H      3.66400     3.45464     0.19006
H      1.45157     3.34794    -0.55769
H      2.88343     1.92782     0.65377
H      3.96915     1.99209    -0.74532
C     -1.33991    -5.19605     1.48303
O     -1.44328    -3.81172     1.19945
H     -2.18210    -5.73640     1.04715
H     -0.75617    -3.59218     0.54115
H     -0.41139    -5.60807     1.08569
H     -1.34833    -5.34514     2.56258
C      0.16546    -3.60485    -1.92293
O      0.41468    -3.16046    -0.59678
H     -0.78615    -4.13503    -1.94986
H      1.00159    -2.38519    -0.67179
H      0.11382    -2.75792    -2.60845
H      0.95442    -4.28108    -2.25892
C     -2.82853    -2.41280     3.92115
O     -2.25613    -1.75044     2.81109
H     -3.83231    -2.02716     4.10916
H     -1.97655    -2.43284     2.18380
H     -2.90136    -3.48830     3.74813
H     -2.22468    -2.24724     4.81726
C     -2.61578     3.71505    -1.63486
O     -2.16365     3.43363    -0.32212
H     -3.43790     3.05474    -1.91769
H     -1.94748     2.47971    -0.28154
H     -2.96963     4.74236    -1.66581
H     -1.80875     3.59748    -2.36243
C      0.36050     0.99752    -3.29680
O      1.59928     0.81354    -2.62745
H      0.46630     1.74083    -4.08668
H      1.78091     1.62663    -2.08721
H      0.07413     0.05227    -3.75894
H     -0.42272     1.30669    -2.60718
C      3.41706    -1.62343    -1.33108
O      2.10707    -1.14464    -1.09382
H      4.14711    -0.83032    -1.16888
H      1.89805    -0.42155    -1.76434
H      3.62621    -2.44430    -0.64671
H      3.50655    -1.98400    -2.35553
C     -2.00506    -0.19335    -0.10521
O     -1.15841     0.93921    -0.21806
H     -2.60420    -0.15728     0.80320
H     -0.34099     0.77699     0.28657
H     -2.67777    -0.20870    -0.96372
H     -1.43437    -1.12077    -0.09550
