 36
-694.8440247626164
C      0.79839     1.13236    -2.66970
O     -0.09597     0.12293    -2.22850
H      1.62790     0.65522    -3.19359
H     -0.57154     0.45487    -1.45273
H      0.31184     1.81900    -3.36885
H      1.20346     1.70508    -1.83409
C      2.64132     3.03635     1.17126
O      1.43802     2.41207     0.76920
H      2.45203     4.10202     1.30094
H      1.56300     1.44697     0.83367
H      3.01084     2.63462     2.11953
H      3.42906     2.91589     0.41880
C      2.35685    -0.98633    -0.06430
O      1.76931    -0.24555     0.99423
H      1.71004    -0.99484    -0.93920
H      0.97323    -0.72070     1.28332
H      3.30213    -0.51246    -0.32419
H      2.56173    -2.01160     0.24865
C     -1.44073    -2.82726    -1.63878
O     -2.02178    -2.09465    -0.55816
H     -1.14515    -3.80019    -1.25244
H     -2.26425    -1.21293    -0.86935
H     -2.16807    -2.96597    -2.43855
H     -0.57253    -2.30111    -2.02887
C     -1.85080     2.19854     0.05848
O     -1.66622     0.78326    -0.05691
H     -2.06070     2.57876    -0.93894
H     -1.31030     0.42577     0.76487
H     -2.70155     2.41860     0.70479
H     -0.94948     2.67371     0.43965
C     -1.31754    -1.82036     2.72118
O     -0.60650    -1.41724     1.56142
H     -0.85758    -1.35090     3.58653
H     -1.06844    -1.79273     0.77638
H     -2.36102    -1.50874     2.65666
H     -1.27810    -2.90369     2.83550
