 36
-694.8458087941341
C      0.47426     3.45519    -1.98043
O      0.29191     3.51827    -0.56540
H     -0.32460     3.98423    -2.50578
H      0.38294     4.42920    -0.28625
H      1.43886     3.87228    -2.27984
H      0.44530     2.40911    -2.27052
C      1.29824    -3.05334     1.53891
O      1.12130    -1.66815     1.78492
H      2.29963    -3.25455     1.15960
H      1.58674    -1.20045     1.05375
H      1.16262    -3.59695     2.47197
H      0.57278    -3.41534     0.80557
C      2.56764     0.86592    -0.04170
O      2.19932    -0.47774    -0.33452
H      3.23600     1.25120    -0.81352
H      1.51669    -0.43496    -1.03395
H      1.69522     1.51697     0.02431
H      3.09872     0.87837     0.90999
C     -0.16083    -1.35016    -2.78970
O      0.11799    -0.18048    -2.04004
H     -1.12712    -1.27200    -3.28997
H     -0.67994     0.01019    -1.49488
H      0.61444    -1.47417    -3.54385
H     -0.17590    -2.23569    -2.14846
C     -2.11450    -1.86511     2.78125
O     -1.46144    -1.01315     1.86032
H     -3.07305    -1.42421     3.04717
H     -0.50185    -1.21934     1.89445
H     -2.28758    -2.85304     2.34731
H     -1.52363    -1.98408     3.69099
C     -2.46544     1.47534    -0.23599
O     -2.01801     0.15255    -0.49464
H     -1.68178     2.07505     0.22560
H     -1.89558    -0.29219     0.36911
H     -2.75162     1.93330    -1.18211
H     -3.33905     1.46428     0.41736
