 36
-694.8504169726077
C      0.02098     3.78907    -0.62494
O     -1.16698     3.22198    -0.10789
H     -0.03393     3.92618    -1.70932
H     -1.30363     2.37915    -0.55635
H      0.15940     4.76547    -0.16307
H      0.89482     3.17304    -0.39595
C      2.03511     0.41077    -2.63982
O      1.43634     0.22962    -1.36649
H      1.76849     1.39928    -3.01089
H      1.59080    -0.69225    -1.06884
H      3.12195     0.35103    -2.56824
H      1.68288    -0.33922    -3.35138
C      2.24765    -3.42539    -0.23215
O      1.41864    -2.29824    -0.44963
H      2.61176    -3.78068    -1.19423
H      0.84502    -2.19259     0.34363
H      3.10346    -3.16587     0.39563
H      1.69348    -4.23212     0.24996
C      1.01445    -0.99583     2.50198
O      0.06589    -1.73722     1.74712
H      0.79889    -1.07081     3.56793
H     -0.74425    -1.18119     1.68823
H      2.01000    -1.40151     2.32266
H      1.00808     0.05682     2.21454
C     -1.66370    -0.61401    -1.78196
O     -1.14850     0.52724    -1.09907
H     -0.96902    -1.44951    -1.69866
H     -0.16550     0.48901    -1.18922
H     -2.61443    -0.89022    -1.32979
H     -1.82854    -0.37641    -2.83285
C     -1.93426     1.13434     2.29297
O     -1.91368    -0.00481     1.44090
H     -2.76075     1.79691     2.03985
H     -1.73981     0.31288     0.53592
H     -2.06702     0.78916     3.31620
H     -1.00537     1.70007     2.21862
