 42
-810.6658074051509
C     -2.52183    -2.36415     1.07594
O     -1.55569    -1.38888     0.74116
H     -3.18713    -1.94667     1.82772
H     -0.85252    -1.81772     0.18894
H     -3.10698    -2.64096     0.19729
H     -2.04347    -3.25524     1.48195
C     -0.11187    -3.22293    -1.89030
O      0.27595    -2.38625    -0.81461
H     -0.79324    -2.69775    -2.56482
H      0.86702    -1.69203    -1.19234
H      0.75725    -3.54878    -2.46111
H     -0.61438    -4.10519    -1.49687
C      0.08661    -1.04732     3.59625
O     -0.32814     0.05083     2.81225
H      0.55412    -1.83027     2.99201
H     -0.78093    -0.30374     2.03996
H      0.81810    -0.69925     4.32479
H     -0.75024    -1.49505     4.14159
C      2.76446    -0.59588    -2.84031
O      1.73816    -0.48495    -1.87316
H      2.54220    -1.44209    -3.49016
H      1.80701     0.40538    -1.45190
H      2.82159     0.30511    -3.45233
H      3.73442    -0.76056    -2.36599
C     -1.87051     0.69304    -1.75318
O     -2.19235     0.95475    -0.38976
H     -0.99150     0.04976    -1.84007
H     -2.06770     0.11431     0.08555
H     -2.71463     0.22112    -2.26002
H     -1.65606     1.63966    -2.24823
C      2.47223     1.52830     0.69058
O      1.91346     1.80932    -0.58917
H      3.08991     2.36435     1.02095
H      1.07554     2.29043    -0.41326
H      1.69000     1.34260     1.42583
H      3.10598     0.64413     0.61323
C     -0.51473     3.41473     1.45712
O     -0.40416     2.87592     0.14755
H     -1.45738     3.95301     1.57607
H     -1.13016     2.22666     0.03160
H     -0.45370     2.62594     2.20696
H      0.29933     4.12258     1.61118
