 36
-694.846011025532
C     -0.57547     2.00153    -2.25827
O     -0.71662     1.70808    -0.87359
H     -0.45066     3.07346    -2.41762
H      0.15637     1.77842    -0.44680
H      0.27780     1.47168    -2.68875
H     -1.47988     1.67582    -2.77028
C      2.94535     1.89713     0.62392
O      1.64556     1.35570     0.46134
H      3.59535     1.58012    -0.19230
H      1.70791     0.37186     0.48053
H      2.86645     2.98113     0.61872
H      3.38274     1.57799     1.57172
C      1.39454    -1.76906     1.93066
O      1.38269    -1.25407     0.59674
H      1.27917    -2.85313     1.92314
H      0.52003    -1.44869     0.19588
H      2.35728    -1.52436     2.37447
H      0.60143    -1.31441     2.52290
C      0.56440    -2.27626    -2.96299
O     -0.56870    -2.85422    -2.35358
H      0.99663    -3.00535    -3.64579
H     -0.97383    -2.17899    -1.80046
H      0.30430    -1.38128    -3.53808
H      1.32341    -2.00615    -2.22368
C     -1.54269     1.92811     2.39387
O     -0.47006     1.00479     2.52699
H     -1.23301     2.94458     2.65081
H      0.24625     1.27575     1.94186
H     -1.94735     1.92899     1.38056
H     -2.32905     1.62200     3.08263
C     -2.40207    -1.00528     0.50749
O     -1.38533    -0.87365    -0.48042
H     -2.00876    -0.75499     1.49170
H     -1.23150     0.07932    -0.64025
H     -3.24671    -0.35210     0.28178
H     -2.74856    -2.03638     0.50265
