 42
-810.6600548534753
C      2.38865    -1.54882     1.41182
O      2.36604    -1.73214    -0.00071
H      1.52965    -2.02958     1.88044
H      1.63648    -2.34613    -0.20955
H      3.30345    -1.97515     1.82127
H      2.36006    -0.48594     1.64712
C     -3.00434     0.63347     1.09843
O     -1.90665    -0.26815     1.07701
H     -3.94714     0.08743     1.02508
H     -1.64474    -0.37738     0.14305
H     -3.00051     1.17904     2.04141
H     -2.93555     1.35556     0.28587
C     -0.72386    -3.42508     0.54531
O      0.02402    -2.97567    -0.57908
H     -0.11467    -4.15648     1.07478
H     -0.45042    -2.24132    -0.99470
H     -0.96301    -2.60268     1.21860
H     -1.64888    -3.90983     0.22855
C      2.29763     0.22640    -2.68091
O      1.60380     0.33064    -1.44574
H      1.75914    -0.41915    -3.37924
H      1.99136    -0.34656    -0.83944
H      2.38910     1.22076    -3.11553
H      3.29577    -0.18303    -2.52913
C     -1.74013     0.46039    -2.30084
O     -0.93151    -0.35816    -1.46555
H     -2.78645     0.19842    -2.14477
H     -0.01321     0.00914    -1.46174
H     -1.59471     1.51030    -2.05778
H     -1.50292     0.28582    -3.35090
C      0.22831     3.45390    -0.97276
O     -0.75762     2.88851    -0.12695
H     -0.28319     3.91462    -1.81947
H     -0.32885     2.39332     0.58488
H      0.80178     4.23331    -0.46165
H      0.91673     2.69673    -1.34955
C     -0.06822     1.56292     3.36057
O      0.18306     1.13917     2.03635
H     -0.35163     0.72708     4.00586
H     -0.52874     0.51999     1.78145
H      0.83944     2.01251     3.76066
H     -0.86488     2.31083     3.39339
