 60
-1158.0928658695914
C     -1.67914     3.30052     0.90961
O     -1.81598     2.30781     1.90661
H     -2.49696     4.02434     0.95003
H     -2.57937     1.76395     1.66280
H     -0.74228     3.83267     1.08178
H     -1.64480     2.87138    -0.09553
C      2.23444    -4.07402     2.76522
O      1.65424    -2.98405     2.07546
H      2.87615    -3.73398     3.58349
H      2.37887    -2.51767     1.62494
H      1.44054    -4.68881     3.18930
H      2.83571    -4.70214     2.10059
C      2.43080     1.05166    -2.91940
O      2.01993     2.09004    -2.03116
H      1.60474     0.37466    -3.14639
H      2.13117     1.74852    -1.13156
H      2.77427     1.50964    -3.84569
H      3.24871     0.47147    -2.49188
C      0.67077    -2.39756    -1.39504
O      0.15523    -1.16394    -0.89931
H     -0.05133    -2.87699    -2.05431
H     -0.37965    -0.72404    -1.60941
H      1.59714    -2.23315    -1.94779
H      0.87011    -3.05162    -0.54996
C      4.59580    -1.11036     1.93235
O      3.70533    -1.55643     0.92439
H      5.49222    -0.66520     1.49592
H      3.23785    -0.77336     0.58144
H      4.11782    -0.37501     2.58366
H      4.89985    -1.96035     2.54306
C     -1.50761    -1.45487     2.50198
O     -1.97947    -1.42034     1.15492
H     -1.38618    -0.44448     2.90154
H     -1.22225    -1.37726     0.55414
H     -2.24914    -1.97290     3.10807
H     -0.56092    -1.98763     2.57710
C     -0.44529     3.20061    -4.06442
O     -0.50912     2.64461    -2.75860
H     -1.10523     2.63945    -4.72849
H      0.40723     2.59157    -2.41857
H     -0.77686     4.23986    -4.04672
H      0.56967     3.15669    -4.45995
C     -2.71584     0.05549    -2.27934
O     -1.33477     0.10290    -2.64192
H     -2.99691    -0.98146    -2.09693
H     -1.09330     1.05570    -2.71730
H     -2.91012     0.63326    -1.37450
H     -3.33123     0.44363    -3.09175
C      1.33642     0.80468     1.47566
O      1.92842     0.39799     0.23907
H      1.15914    -0.05430     2.12338
H      1.26620    -0.19061    -0.19369
H      2.03138     1.47272     1.98260
H      0.39291     1.32396     1.31737
C     -4.92346     0.22776     1.99535
O     -3.84141     0.55452     1.14503
H     -5.19541    -0.82620     1.90892
H     -3.26008    -0.22697     1.09166
H     -4.67903     0.43998     3.03968
H     -5.78412     0.82995     1.70902
