 24
-463.2307382915471
C      2.35831     0.67355    -1.43328
O      1.80533     0.57165    -0.13090
H      3.19205    -0.01866    -1.55752
H      1.49709    -0.35304    -0.01413
H      1.61004     0.46084    -2.20196
H      2.72492     1.68869    -1.57054
C     -0.67398     2.36214     1.43400
O     -0.57215     1.80656     0.13277
H     -1.68880     2.72975     1.57018
H      0.35300     1.50008     0.01556
H     -0.46245     1.61540     2.20452
H      0.01866     3.19580     1.55667
C     -2.36048    -0.67294    -1.43428
O     -1.80326    -0.57239    -0.13364
H     -2.72811    -1.68773    -1.57134
H     -1.49540     0.35231    -0.01591
H     -3.19445     0.01965    -1.55543
H     -1.61436    -0.46036    -2.20511
C      0.67425    -2.36228     1.43414
O      0.57444    -1.80782     0.13218
H      1.68899    -2.72949     1.57228
H     -0.35003    -1.49992     0.01340
H      0.46179    -1.61467     2.20347
H     -0.01871    -3.19571     1.55701
