 30
-579.0314160315874
C      3.01545    -0.22773    -1.81947
O      2.37230    -1.27691    -2.54193
H      4.04601    -0.08391    -2.15054
H      2.94515    -2.04368    -2.54582
H      2.46506     0.68774    -2.02051
H      2.99382    -0.41972    -0.74761
C      0.88034    -2.12494     0.51480
O      0.96925    -0.72637     0.72830
H      1.46357    -2.66636     1.26186
H      0.31296    -0.50756     1.42566
H     -0.15262    -2.47314     0.56995
H      1.27500    -2.35358    -0.47163
C     -2.03906    -1.19479     2.51703
O     -1.09346    -0.16061     2.30491
H     -2.56595    -1.43859     1.59156
H     -1.54034     0.54623     1.78650
H     -1.51552    -2.08498     2.86483
H     -2.76939    -0.90705     3.27451
C     -1.75768     3.01655     1.04833
O     -2.01901     1.69219     0.60845
H     -1.85919     3.72399     0.22444
H     -1.40647     1.51114    -0.13714
H     -2.48368     3.26989     1.81796
H     -0.75096     3.10694     1.46439
C     -0.58380     0.27044    -2.23213
O     -0.08066     0.99576    -1.12142
H     -1.25228    -0.53365    -1.91305
H      0.43858     0.38039    -0.56432
H     -1.14880     0.96232    -2.85298
H      0.22663    -0.15716    -2.81890
