 36
-694.8541364795085
C     -0.74528     2.53384    -1.83017
O      0.22773     1.56768    -2.19217
H     -1.36701     2.74938    -2.69564
H      0.91141     1.56939    -1.48675
H     -1.38093     2.16415    -1.02277
H     -0.27081     3.45870    -1.49998
C      3.26135     1.09029    -0.47530
O      1.90033     1.28550    -0.13751
H      3.59830     1.93342    -1.07703
H      1.59593     0.50683     0.37707
H      3.88564     1.03346     0.41848
H      3.39265     0.17167    -1.05296
C      1.19738    -0.70332     2.64518
O      1.02142    -0.83148     1.23786
H      2.05461    -0.05422     2.82662
H      0.13337    -1.18923     1.05427
H      0.31731    -0.26572     3.11298
H      1.40723    -1.67545     3.09609
C      0.59889    -1.69025    -2.31221
O     -0.58722    -0.96565    -2.00526
H      0.34265    -2.74041    -2.44625
H     -0.37771    -0.01307    -2.14077
H      1.04508    -1.32105    -3.23535
H      1.33050    -1.59841    -1.50785
C     -1.42871     1.72532     2.02589
O     -2.00368     0.48514     2.39260
H     -2.14287     2.34711     1.47959
H     -1.97509    -0.10287     1.63058
H     -1.16060     2.25293     2.94045
H     -0.52615     1.60653     1.42146
C     -2.25489    -2.75799     0.40403
O     -1.50048    -1.55697     0.37740
H     -1.62226    -3.62103     0.18486
H     -1.27595    -1.35572    -0.56329
H     -2.67887    -2.87124     1.39861
H     -3.06460    -2.71785    -0.32522
