 24
-463.219728679008
C      2.11336     0.33588    -1.35637
O      1.09228     1.22834    -1.74712
H      1.94997    -0.06745    -0.35262
H      0.25968     0.73938    -1.76776
H      2.20466    -0.50396    -2.05335
H      3.05880     0.87922    -1.36134
C     -0.21152     1.79121     1.42059
O     -0.77344     0.49079     1.29668
H      0.66211     1.90385     0.77938
H     -0.11958    -0.14564     1.63796
H     -0.96741     2.51481     1.12088
H      0.06733     1.99198     2.45633
C     -2.65795     0.29207    -1.66179
O     -1.39645    -0.18201    -1.23288
H     -2.88115    -0.15122    -2.63092
H     -1.28452     0.08062    -0.29752
H     -3.44758     0.01068    -0.96021
H     -2.65680     1.38141    -1.76692
C      0.75973    -2.44525     0.92456
O      0.97261    -1.41992     1.90444
H      0.26895    -3.31047     1.36953
H      1.37278    -1.80195     2.68476
H      0.11714    -2.02997     0.15146
H      1.70755    -2.74385     0.47540
