 36
-694.845639600357
C     -2.89370     2.57162    -2.49407
O     -1.86253     1.97455    -1.72633
H     -3.52403     1.81278    -2.96437
H     -2.22322     1.79347    -0.83703
H     -3.52017     3.21352    -1.87170
H     -2.43697     3.18035    -3.27135
C      4.15727    -1.67604    -0.51418
O      2.91923    -1.94564     0.11353
H      4.41260    -2.52864    -1.14292
H      2.70874    -1.20883     0.70718
H      4.10100    -0.78497    -1.14782
H      4.96075    -1.52693     0.21264
C      2.26372     0.41718     3.15799
O      2.03889     0.16328     1.78274
H      3.28088     0.78894     3.26840
H      1.09672    -0.03757     1.65232
H      1.57384     1.17245     3.54279
H      2.15798    -0.49323     3.75516
C      1.14120     0.07455    -1.88384
O     -0.23322    -0.19695    -1.60606
H      1.23680     0.74120    -2.74068
H     -0.76277     0.59962    -1.80988
H      1.62982     0.53583    -1.02372
H      1.63948    -0.86520    -2.10661
C     -3.74832     0.08152     0.34660
O     -2.70372     0.99656     0.65630
H     -4.65942     0.65478     0.18510
H     -1.97480     0.48786     1.03927
H     -3.52441    -0.49173    -0.55488
H     -3.91709    -0.61118     1.17145
C     -0.40227    -2.19046     1.19039
O     -0.43301    -0.78390     0.96199
H      0.46207    -2.64058     0.70491
H     -0.36740    -0.65009    -0.01556
H     -0.33690    -2.35723     2.26318
H     -1.31210    -2.65753     0.81292
