 18
-347.41040107248017
C     -0.94794     2.25336     0.16377
O     -1.98280     1.34063    -0.22070
H     -0.40212     2.60651    -0.71081
H     -2.55016     1.76471    -0.86456
H     -1.36768     3.09736     0.71177
H     -0.25874     1.71444     0.80730
C     -1.28420    -2.00397     0.25369
O     -0.67797    -1.01097    -0.55485
H     -0.79912    -2.95543     0.04516
H     -1.21641    -0.20729    -0.46043
H     -1.16530    -1.76621     1.31345
H     -2.34935    -2.09460     0.03051
C      3.06203    -0.41086    -0.02547
O      1.82446     0.22744     0.22603
H      3.84690     0.18815     0.43622
H      1.10983    -0.32723    -0.11267
H      3.09739    -1.41564     0.40641
H      3.26967    -0.48428    -1.09713
