 60
-1158.0991864919463
C     -2.01923     0.51850    -1.37983
O     -2.10330    -0.54430    -0.44298
H     -3.01183     0.89199    -1.64088
H     -2.21303    -0.18506     0.44568
H     -1.41627     1.34782    -1.01029
H     -1.55349     0.14915    -2.29136
C      2.39136    -0.36369    -3.18647
O      1.07982    -0.28305    -2.65029
H      2.82669    -1.34922    -3.01035
H      1.14693    -0.41860    -1.68665
H      2.33023    -0.20571    -4.26195
H      3.05220     0.39460    -2.76029
C      0.11191    -1.47037     3.60032
O     -1.28833    -1.55376     3.35340
H      0.68299    -1.56167     2.67614
H     -1.43675    -2.36355     2.80246
H      0.33476    -0.50602     4.05605
H      0.42745    -2.25671     4.28552
C      2.73372    -0.34261     0.54210
O      1.38449    -0.44090     0.11334
H      2.78408    -0.22022     1.62460
H      0.87958     0.30635     0.52691
H      3.25791    -1.26009     0.27682
H      3.22224     0.50490     0.06477
C      3.14648     4.13860    -1.15352
O      2.87352     2.75440    -1.13631
H      3.28730     4.51391    -2.17180
H      2.07211     2.60190    -1.66260
H      2.33699     4.71552    -0.69383
H      4.06148     4.32507    -0.59060
C     -0.07320    -3.06350    -1.36618
O      0.38108    -2.93323    -0.02500
H      0.76331    -3.05678    -2.06537
H      0.68463    -2.01601     0.10457
H     -0.58730    -4.01872    -1.46726
H     -0.76463    -2.26287    -1.62507
C     -3.59129     0.83728     2.72106
O     -2.24127     0.64816     2.32835
H     -3.98255     1.69534     2.18086
H     -1.92201    -0.17200     2.78613
H     -4.18777    -0.04362     2.47707
H     -3.65823     1.02479     3.79260
C      0.29299     2.89134     0.95176
O      0.10420     1.50398     1.22586
H      1.32153     3.16135     1.17822
H     -0.76316     1.35423     1.64947
H      0.09987     3.10784    -0.09864
H     -0.37218     3.49814     1.56574
C     -2.69892    -3.70262     0.98310
O     -1.49085    -3.62621     1.72346
H     -2.62641    -3.13635     0.05536
H     -0.76416    -3.48017     1.07758
H     -2.93589    -4.74366     0.75634
H     -3.51400    -3.29367     1.58210
C      0.47846     2.95259    -3.97724
O      0.56822     2.37208    -2.68844
H      1.00342     3.90810    -3.97712
H      0.57187     1.40142    -2.79788
H      0.93021     2.31108    -4.73648
H     -0.56498     3.13383    -4.24465
