 60
-1158.0942373534674
C      2.81580    -2.23821    -1.81085
O      1.70509    -2.39857    -0.93780
H      3.24544    -1.24343    -1.70080
H      1.00426    -1.77287    -1.23016
H      3.56307    -2.98707    -1.55715
H      2.50893    -2.37797    -2.84746
C     -1.98066     5.08274     0.46988
O     -1.26567     3.93620     0.05459
H     -2.93165     5.17565    -0.06095
H     -1.87659     3.18047     0.11442
H     -2.18234     5.05693     1.54401
H     -1.37318     5.96020     0.25506
C      2.14753     2.51472    -1.12686
O      2.24664     1.09565    -1.07574
H      3.03279     2.92531    -0.64232
H      1.46375     0.70379    -1.47940
H      2.11967     2.87734    -2.15573
H      1.26430     2.87999    -0.59941
C     -0.08305     0.52375     1.52682
O     -1.04896    -0.25503     0.80328
H      0.92925     0.30761     1.19493
H     -1.08330    -1.15955     1.22595
H     -0.28429     1.57992     1.36274
H     -0.15120     0.31218     2.59102
C      1.34975    -5.09576     1.38541
O      0.43744    -4.35445     0.58279
H      2.04005    -4.43269     1.90657
H      0.94595    -3.82920    -0.05675
H      0.77327    -5.65764     2.11829
H      1.91416    -5.80553     0.77877
C     -0.49794    -2.63512     3.27095
O     -0.99475    -2.58007     1.93992
H     -0.54390    -3.65252     3.65951
H     -0.53522    -3.28176     1.42471
H      0.53162    -2.28327     3.31932
H     -1.12890    -2.00946     3.90160
C     -2.03272     3.41537    -3.11476
O     -0.68805     3.53312    -2.69525
H     -2.63598     2.86192    -2.38894
H     -0.71630     3.78075    -1.76142
H     -2.48783     4.39735    -3.27003
H     -2.05502     2.87737    -4.06330
C     -0.96659    -0.27651    -2.69422
O     -0.09531    -0.65503    -1.63207
H     -0.53570    -0.63704    -3.62403
H     -0.55080    -0.45083    -0.78464
H     -1.95092    -0.72167    -2.55548
H     -1.05675     0.80857    -2.73268
C      3.42490    -0.83327     1.79509
O      2.45165    -1.86286     1.72905
H      3.46363    -0.24375     0.87560
H      2.21655    -2.02070     0.80237
H      3.17810    -0.15637     2.61717
H      4.41513    -1.25009     1.99291
C     -3.64814     1.70419     1.40695
O     -2.84801     1.69837     0.23478
H     -4.16341     0.75152     1.53725
H     -2.27696     0.91161     0.31079
H     -3.04581     1.89657     2.29885
H     -4.39585     2.48942     1.31216
