 36
-694.8512449343367
C      1.96367     3.95338    -0.19050
O      0.91314     3.02425     0.00670
H      2.92695     3.54126     0.12746
H      1.01809     2.28383    -0.60408
H      2.04362     4.26656    -1.23585
H      1.74832     4.83114     0.41695
C      0.86236     0.47854    -2.98036
O      0.77833     0.52089    -1.56680
H      1.90087     0.61922    -3.27079
H     -0.17023     0.40813    -1.31839
H      0.51664    -0.48677    -3.35470
H      0.25286     1.26608    -3.42793
C      1.70343     0.10442     1.76159
O      2.07200    -0.70141     0.63945
H      1.97684     1.14724     1.60649
H      1.81171    -0.22654    -0.16484
H      0.62925     0.04486     1.95218
H      2.23430    -0.27796     2.63060
C      0.19330    -3.12921    -0.62466
O      0.29221    -2.71172     0.73031
H     -0.71619    -3.71634    -0.74430
H      1.06027    -2.10318     0.77962
H      0.15000    -2.27480    -1.30085
H      1.04493    -3.75150    -0.89740
C     -2.23982     1.62803    -0.38947
O     -1.73424     0.34979    -0.76995
H     -3.23306     1.53280     0.05010
H     -1.89605    -0.26525    -0.02268
H     -1.57568     2.11058     0.32856
H     -2.30903     2.25135    -1.27919
C     -2.93818    -2.04279     1.97421
O     -1.90960    -1.31326     1.32845
H     -3.76605    -1.36493     2.17391
H     -1.13223    -1.90515     1.22194
H     -3.29548    -2.86314     1.34613
H     -2.58594    -2.45376     2.92249
