 24
-463.2290944218595
C      2.91116     1.05229     0.00200
O      1.72263     0.61406    -0.63355
H      2.81596     1.00308     1.08927
H      1.50054    -0.27772    -0.30209
H      3.76602     0.44828    -0.30673
H      3.09186     2.08463    -0.29126
C     -0.51417     2.70614     0.80823
O     -0.65276     1.83730    -0.30338
H     -1.48733     3.13962     1.02681
H      0.24198     1.50874    -0.52954
H     -0.15857     2.17170     1.69345
H      0.18282     3.51591     0.58712
C     -2.58085    -0.97782    -0.76936
O     -1.76651    -0.53839     0.30520
H     -2.88670    -2.00366    -0.57134
H     -1.52193     0.39305     0.11866
H     -3.47585    -0.36134    -0.85647
H     -2.03726    -0.94570    -1.71716
C      0.60190    -3.06687     0.02456
O      0.65723    -1.69242     0.36237
H      0.32283    -3.20537    -1.02288
H     -0.26578    -1.36916     0.43559
H      1.58490    -3.50359     0.18812
H     -0.12101    -3.59504     0.65059
