 24
-463.222559110094
C      2.18549     0.18572     1.34949
O      1.07465     1.07585     1.23175
H      3.12098     0.74460     1.38331
H      1.06399     1.44377     0.33722
H      2.06793    -0.35765     2.28503
H      2.21325    -0.52660     0.52623
C     -0.95242     2.51656    -1.62424
O     -0.15037     1.36360    -1.39788
H     -0.33625     3.25237    -2.13977
H     -0.69601     0.68409    -0.97715
H     -1.81718     2.28606    -2.25203
H     -1.30130     2.94501    -0.68110
C     -2.16696    -0.58621     1.78777
O     -1.19218    -0.35443     0.77991
H     -2.25452     0.27953     2.44691
H     -0.43690     0.12176     1.17571
H     -3.12285    -0.75203     1.29566
H     -1.91432    -1.46701     2.38135
C      0.69689    -2.01356    -1.77215
O      0.57784    -2.33968    -0.39810
H      1.08868    -1.00367    -1.91424
H     -0.14070    -1.81476    -0.02899
H      1.38977    -2.72183    -2.22431
H     -0.26447    -2.09006    -2.28782
