 60
-1158.0978256653673
C      2.23328    -2.25103     0.76620
O      0.96284    -2.37368     0.13326
H      2.36038    -3.02571     1.52506
H      0.28671    -2.48726     0.83095
H      3.00981    -2.37010     0.01702
H      2.34389    -1.27559     1.24063
C      1.65230     4.63235     0.52938
O      2.05602     3.49487    -0.21320
H      2.17231     4.62742     1.48774
H      1.38088     3.34153    -0.91204
H      1.90787     5.55203     0.00097
H      0.57720     4.62129     0.72082
C      3.62185     2.03973     2.40083
O      2.90908     1.48705     1.31188
H      4.20748     1.25252     2.87422
H      2.60674     2.23143     0.74886
H      4.30225     2.83108     2.07841
H      2.93490     2.44991     3.14650
C     -1.22339    -3.66801     2.83702
O     -1.03713    -2.64056     1.88339
H     -2.02929    -3.41582     3.52843
H     -1.87998    -2.52499     1.40011
H     -1.45803    -4.62042     2.35533
H     -0.30524    -3.78353     3.41015
C     -1.34019    -2.25928    -2.24379
O     -0.27343    -1.33880    -1.99700
H     -1.21364    -2.71767    -3.22522
H      0.31408    -1.75653    -1.33028
H     -1.36454    -3.03468    -1.47860
H     -2.29459    -1.72935    -2.22951
C     -4.52842    -2.77816     1.00971
O     -3.29826    -2.27892     0.51661
H     -5.33993    -2.58290     0.30756
H     -3.47593    -1.41142     0.09179
H     -4.44668    -3.85583     1.14359
H     -4.78374    -2.32059     1.96949
C     -0.58733     0.68164     0.53417
O     -1.14498     0.79335    -0.78227
H      0.43060     0.30145     0.49772
H     -0.81083     0.01193    -1.30446
H     -0.57629     1.66250     1.00555
H     -1.18446     0.00823     1.14728
C      0.59273     2.35786    -3.18906
O      0.14184     2.91910    -1.96296
H      1.19229     1.46392    -3.01362
H     -0.43642     2.25255    -1.54978
H     -0.24902     2.09127    -3.82851
H      1.20378     3.09551    -3.70471
C      3.40538     0.06976    -1.63300
O      4.26174    -0.05557    -0.52211
H      2.35602    -0.07122    -1.35843
H      3.86302     0.46718     0.18954
H      3.50780     1.04626    -2.11405
H      3.67312    -0.69557    -2.36206
C     -4.27876     1.01131     0.56903
O     -3.77694     0.17260    -0.45988
H     -5.33491     0.79427     0.71012
H     -2.91040     0.53707    -0.72025
H     -3.75425     0.84080     1.51266
H     -4.17145     2.06217     0.30091
