 60
-1158.0887321980795
C      3.82065    -2.88140     0.05918
O      2.79711    -1.91222     0.16359
H      4.56731    -2.58812    -0.68304
H      2.25420    -1.95970    -0.65643
H      4.30851    -2.98896     1.02768
H      3.41395    -3.85177    -0.22847
C      0.43925     2.54386     1.98744
O     -0.46390     1.66341     1.33773
H      0.88151     3.19863     1.23924
H     -0.52876     0.83626     1.85950
H     -0.08107     3.16135     2.72341
H      1.24043     1.99104     2.48055
C      2.98675     1.38247    -1.77006
O      2.00735     1.67128    -0.77909
H      3.65336     2.23578    -1.90710
H      2.37957     1.42242     0.08939
H      3.57763     0.50785    -1.49557
H      2.48419     1.18128    -2.71616
C     -4.91616     1.06649    -2.12140
O     -4.30584     0.04950    -2.91973
H     -5.19490     1.93322    -2.72556
H     -4.93663    -0.24427    -3.57614
H     -5.80256     0.68769    -1.60668
H     -4.19580     1.37982    -1.37284
C     -2.72648    -1.32223    -0.04061
O     -1.32027    -1.46067     0.13033
H     -3.11406    -0.45674     0.49869
H     -0.86218    -0.80334    -0.42480
H     -3.00655    -1.22915    -1.08868
H     -3.19709    -2.21911     0.35646
C      4.47270     0.61922     1.59777
O      3.08449     0.44719     1.41265
H      5.04036     0.35726     0.70146
H      2.94127    -0.44637     1.03534
H      4.66535     1.66465     1.83564
H      4.83891     0.00804     2.42551
C     -3.54393     1.94177     2.09745
O     -3.05554     2.20074     0.79688
H     -3.53791     2.84721     2.71209
H     -2.09206     2.08783     0.84747
H     -4.57386     1.58320     2.02958
H     -2.94570     1.18077     2.60536
C      0.45265    -1.28023     3.09724
O     -0.74649    -0.69752     2.61336
H      1.15675    -1.48538     2.28961
H     -0.99975    -1.16969     1.79299
H      0.91970    -0.58682     3.79778
H      0.24520    -2.21027     3.62985
C      0.49234    -3.21868    -2.08187
O      1.33555    -2.07239    -2.03003
H     -0.22086    -3.21753    -1.25891
H      0.77893    -1.27446    -2.08005
H     -0.04755    -3.25575    -3.02896
H      1.12223    -4.10423    -2.01105
C     -1.03327     1.17317    -2.12869
O     -0.05077     0.28139    -1.59553
H     -1.80531     0.60408    -2.63849
H      0.64821     0.83811    -1.16427
H     -1.48597     1.75725    -1.32839
H     -0.57242     1.85119    -2.84648
