 36
-694.8527153473283
C     -0.44739     2.31302    -0.20202
O     -1.18109     1.16921    -0.62899
H     -0.46447     3.08155    -0.97277
H     -0.65386     0.73132    -1.34102
H     -0.91567     2.70301     0.70068
H      0.59035     2.05633     0.01852
C      3.96279    -0.21908    -1.43622
O      2.80298     0.50083    -1.06353
H      3.79264    -1.29769    -1.39676
H      2.52552     0.18189    -0.17937
H      4.23140     0.05821    -2.45411
H      4.80103     0.02244    -0.77914
C      2.23196     0.23945     2.44961
O      1.85160    -0.43393     1.26527
H      3.31626     0.34273     2.46463
H      0.88492    -0.60657     1.31470
H      1.78312     1.23583     2.49751
H      1.92729    -0.31994     3.33507
C     -3.93369    -0.84531    -0.31983
O     -3.80988     0.45600     0.22151
H     -4.89906    -1.24524    -0.01639
H     -3.06043     0.87583    -0.21495
H     -3.88952    -0.83889    -1.41191
H     -3.15033    -1.50972     0.05433
C      0.41644    -1.41910    -2.17879
O      0.48077    -0.00370    -2.31901
H      0.81038    -1.73824    -1.21254
H      1.38022     0.26161    -2.03430
H     -0.62450    -1.73411    -2.25542
H      0.98111    -1.90722    -2.97326
C     -1.59259    -0.62572     2.56093
O     -0.77937    -0.69437     1.39722
H     -1.36682    -1.49195     3.17793
H     -1.11584    -0.05421     0.74334
H     -1.38023     0.27965     3.13527
H     -2.64729    -0.63690     2.29776
