 60
-1158.0891284657814
C      4.47159     0.17733    -1.44630
O      4.31058    -1.11259    -0.89136
H      5.00672     0.83490    -0.75358
H      3.48081    -1.14017    -0.40581
H      5.07370     0.09010    -2.35138
H      3.51866     0.64516    -1.70935
C      1.90492    -1.93733    -3.25634
O      1.01997    -1.31651    -2.33050
H      1.49990    -1.88928    -4.26846
H      1.00383    -0.34744    -2.52123
H      2.88743    -1.46936    -3.23776
H      2.01401    -2.98632    -2.98248
C      2.43677     2.19720     0.54632
O      1.21397     2.27788    -0.17013
H      2.73199     1.16251     0.72619
H      0.53506     1.80174     0.34005
H      3.20817     2.68810    -0.04443
H      2.35958     2.71259     1.50407
C     -0.13240     1.88690    -3.23195
O      1.03843     1.33100    -2.64904
H     -0.96642     1.87941    -2.53113
H      1.14487     1.74429    -1.76199
H      0.05920     2.91425    -3.54816
H     -0.39638     1.30253    -4.11424
C      1.74612    -2.89595     0.65738
O      1.64622    -1.55040     0.19835
H      0.76148    -3.32503     0.83140
H      1.33239    -1.54695    -0.74448
H      2.28585    -3.51149    -0.06235
H      2.29838    -2.89868     1.59542
C     -2.25876    -3.60457     3.18618
O     -1.26076    -3.18398     2.27637
H     -2.74953    -2.75327     3.66956
H     -1.64115    -2.51234     1.69068
H     -3.02545    -4.21402     2.69860
H     -1.78407    -4.20745     3.95959
C     -4.87319     1.46323     1.86064
O     -3.46294     1.29736     1.81054
H     -5.07498     2.43363     2.31125
H     -3.26363     0.40279     1.50488
H     -5.31041     1.44220     0.85855
H     -5.34657     0.69054     2.47125
C     -2.16006    -1.19046    -0.72948
O     -2.13258    -1.04222     0.68736
H     -2.04474    -0.22335    -1.21650
H     -1.33244    -0.51813     0.90110
H     -1.36924    -1.85653    -1.07274
H     -3.12238    -1.61722    -1.00248
C      0.11769     0.16371     2.84608
O      0.10561     0.17512     1.41941
H      0.98097     0.71024     3.22760
H      0.78100    -0.46055     1.07923
H     -0.78684     0.65502     3.19696
H      0.13851    -0.85776     3.22327
C     -1.65002     3.93148    -0.43431
O     -2.08254     2.58333    -0.47161
H     -0.80422     4.06285     0.24380
H     -2.52739     2.35893     0.35514
H     -1.32429     4.21180    -1.43578
H     -2.45196     4.61117    -0.13597
