 60
-1158.0963466530395
C      0.16838    -3.95648    -0.39024
O     -0.97348    -3.11413    -0.33816
H     -0.12357    -4.95345    -0.06102
H     -0.72380    -2.27549     0.07703
H      0.53506    -4.03475    -1.41576
H      0.97467    -3.59703     0.25047
C      2.15614     1.30009     2.26251
O      1.80485     2.10954     1.14548
H      2.41845     1.95592     3.09025
H      1.89757     1.57332     0.34103
H      1.32561     0.66580     2.57170
H      3.00849     0.66920     2.02375
C      1.90463    -0.78781    -1.56415
O      1.44348     0.43753    -0.99764
H      2.37202    -0.60557    -2.52991
H      0.91040     0.90909    -1.69116
H      2.63410    -1.22703    -0.89115
H      1.07760    -1.48494    -1.70664
C     -0.32359    -3.10253     3.16799
O      0.49204    -2.00930     2.78607
H     -0.82435    -3.54533     2.30592
H     -0.01906    -1.43699     2.18832
H      0.31776    -3.85326     3.62772
H     -1.07258    -2.79307     3.90052
C      3.88658    -2.18510     2.57903
O      2.92781    -2.07706     1.54846
H      4.88055    -2.20417     2.13271
H      2.05162    -2.06240     1.96840
H      3.83504    -1.33635     3.26747
H      3.75332    -3.09982     3.16504
C     -0.81330     1.01148    -3.72007
O     -0.08906     1.67759    -2.69354
H     -1.41374     0.19461    -3.31761
H     -0.68901     2.31333    -2.24305
H     -1.46949     1.70906    -4.24109
H     -0.10100     0.61053    -4.43865
C     -3.74016    -2.79772    -2.65186
O     -2.51557    -2.10748    -2.49159
H     -4.43717    -2.14372    -3.17638
H     -2.00581    -2.56171    -1.80888
H     -3.61177    -3.71124    -3.23987
H     -4.18005    -3.06704    -1.68711
C     -1.38329     4.75167    -1.68182
O     -1.56043     3.41032    -1.25217
H     -1.05799     4.76544    -2.72409
H     -1.24989     3.37647    -0.32309
H     -2.32359     5.30164    -1.60800
H     -0.63025     5.25547    -1.07483
C     -0.31603     4.66455     1.87370
O     -0.49720     3.42975     1.20890
H      0.51655     5.22266     1.43989
H      0.36383     2.95810     1.23964
H     -1.22480     5.25698     1.77517
H     -0.11533     4.50920     2.93529
C     -1.67513     0.11092     0.41137
O     -0.43916    -0.53659     0.74432
H     -2.45914    -0.36201     0.99919
H      0.28133    -0.11824     0.23125
H     -1.62946     1.16864     0.65500
H     -1.91289    -0.00942    -0.64491
