 36
-694.8543956355721
C      1.96778     0.95403    -2.14091
O      0.94605     0.43593    -1.30791
H      1.53557     1.55825    -2.93924
H      0.42268     1.19445    -0.93216
H      2.66597     1.56476    -1.56759
H      2.50967     0.12121    -2.58496
C      0.32448     3.30328     0.58716
O     -0.40127     2.36669    -0.19597
H      1.04469     2.79592     1.23500
H     -0.96673     1.85274     0.43183
H      0.85969     3.97808    -0.07753
H     -0.35091     3.88905     1.21022
C      0.96786    -0.37591     3.49367
O      0.10922    -0.98882     2.54842
H      0.40254    -0.16894     4.40026
H      0.67333    -1.30570     1.80919
H      1.80246    -1.03152     3.74567
H      1.37124     0.56419     3.10515
C     -1.86829    -0.63128    -3.04388
O     -0.90120    -1.41780    -2.38234
H     -2.66313    -1.28707    -3.39382
H     -0.23341    -0.81472    -2.03327
H     -2.30621     0.11989    -2.38041
H     -1.44581    -0.11045    -3.90828
C     -2.55614    -0.13258     0.70306
O     -1.62960     0.68503     1.40718
H     -3.12280    -0.75320     1.39681
H     -1.00838     0.08564     1.88134
H     -3.25688     0.51732     0.17973
H     -2.05806    -0.77751    -0.02268
C      1.36296    -2.80185    -0.24076
O      1.59125    -1.55794     0.40811
H      0.33975    -2.87807    -0.61027
H      1.40585    -0.84486    -0.23013
H      2.04885    -2.92821    -1.08068
H      1.54421    -3.59913     0.47766
