 60
-1158.0970372091358
C     -1.56953     2.54410     2.21675
O     -2.03438     1.21484     2.03044
H     -1.31236     2.70856     3.26192
H     -1.25266     0.61752     2.18862
H     -0.69555     2.72844     1.59124
H     -2.36531     3.23403     1.93972
C      3.62653     2.43955    -2.79225
O      3.45885     1.04702    -2.96469
H      2.83790     2.85893    -2.16225
H      3.42093     0.63230    -2.09552
H      4.59281     2.68231    -2.33983
H      3.57561     2.91320    -3.77223
C      4.15420    -1.70225    -0.53030
O      3.14696    -0.70225    -0.58578
H      4.92645    -1.37789     0.16506
H      2.35267    -1.09209    -1.02012
H      3.74660    -2.65313    -0.18310
H      4.60327    -1.84573    -1.51393
C      1.38778    -1.79547    -3.24047
O      1.06977    -1.75545    -1.85278
H      0.67592    -2.41612    -3.78686
H      0.14674    -1.44471    -1.77348
H      1.39860    -0.79432    -3.67330
H      2.38007    -2.22880    -3.35914
C     -0.19533    -1.73246     1.88979
O     -0.04662    -0.41245     2.40607
H     -1.19970    -2.08529     2.11023
H      0.89033    -0.13814     2.24492
H     -0.04340    -1.76266     0.81246
H      0.51588    -2.41151     2.35919
C     -2.21427    -2.14903    -1.11103
O     -1.45643    -0.97089    -1.39716
H     -2.71425    -2.06704    -0.14652
H     -2.06383    -0.21647    -1.21665
H     -2.95896    -2.31466    -1.88977
H     -1.53716    -3.00229    -1.08978
C     -3.61891    -1.55346     3.56707
O     -3.74341    -1.05739     2.24600
H     -2.57605    -1.76668     3.81928
H     -3.28557    -0.20663     2.21093
H     -4.01040    -0.84496     4.30220
H     -4.19086    -2.47870     3.64161
C      0.12065     1.85435    -1.74578
O      0.33879     1.26690    -0.46473
H     -0.88815     1.66118    -2.11275
H     -0.16501     0.44104    -0.41861
H      0.23513     2.93304    -1.64299
H      0.84654     1.50328    -2.47931
C      2.71945     1.58653     1.90264
O      2.47482     0.18967     1.83891
H      3.75615     1.81201     1.64672
H      2.72300    -0.10858     0.93958
H      2.05673     2.12481     1.22333
H      2.53651     1.92126     2.92282
C     -4.36818     0.84747    -0.52313
O     -2.95586     1.03024    -0.55395
H     -4.63987    -0.05235     0.02684
H     -2.64718     1.18908     0.35949
H     -4.85797     1.70565    -0.06198
H     -4.71706     0.75958    -1.54926
