 60
-1158.095185448658
C      2.86637    -1.40671    -3.76074
O      3.41727    -0.73036    -2.64594
H      2.02081    -2.03399    -3.45882
H      3.04267     0.16079    -2.59102
H      2.52179    -0.71337    -4.53279
H      3.62969    -2.05470    -4.19233
C      0.98731     3.58701     1.92094
O      1.96519     3.79661     0.92197
H      0.49309     4.53850     2.11671
H      2.49654     2.99448     0.86114
H      0.23518     2.85983     1.60177
H      1.42883     3.23978     2.86024
C     -3.90301    -3.46634    -0.98212
O     -2.87233    -2.57300    -0.60967
H     -4.16807    -3.28044    -2.02231
H     -2.76528    -2.64985     0.36197
H     -3.57520    -4.50412    -0.89280
H     -4.79300    -3.32922    -0.36292
C     -2.46448    -3.98340     2.58788
O     -2.58954    -2.67797     2.05192
H     -3.42262    -4.49342     2.50067
H     -1.81588    -2.16578     2.37730
H     -1.70471    -4.55553     2.04884
H     -2.18706    -3.94557     3.64124
C     -0.72421    -0.04055     3.37364
O     -0.44054    -1.32094     2.81246
H     -0.89654     0.69889     2.59148
H      0.18322    -1.17130     2.08657
H     -1.61701    -0.12748     3.99049
H      0.10573     0.29113     3.99770
C      0.86213    -1.19652    -0.64766
O      0.83550    -0.30385     0.47145
H      0.86448    -0.63978    -1.58169
H      0.11005     0.34235     0.28505
H      1.77040    -1.79373    -0.60207
H     -0.00328    -1.85615    -0.62563
C     -0.80821     2.29514    -1.12415
O     -1.16213     1.31875    -0.14660
H     -0.06111     2.96677    -0.70869
H     -2.00866     0.90256    -0.43677
H     -0.39525     1.82555    -2.01687
H     -1.68067     2.87929    -1.41561
C      2.71156     3.17933    -2.40579
O      2.32665     1.85363    -2.07023
H      2.18473     3.90812    -1.78918
H      2.53530     1.72989    -1.12697
H      3.78713     3.32305    -2.27406
H      2.46089     3.35337    -3.45147
C      4.26470     0.46873     0.43731
O      3.03769     1.19135     0.48738
H      5.02184     1.11671     0.00068
H      2.29977     0.56141     0.63109
H      4.58235     0.18861     1.44215
H      4.16631    -0.42066    -0.18240
C     -4.44269     0.16854     0.06916
O     -3.38938     0.05880    -0.88168
H     -5.40734     0.01744    -0.41731
H     -3.18626    -0.89792    -0.94321
H     -4.32693    -0.56476     0.86780
H     -4.42716     1.17022     0.49860
