 36
-694.8493168455628
C      0.19471     1.22734    -2.70395
O     -0.93760     0.46709    -2.28433
H      0.44531     0.93155    -3.71958
H     -1.41678     0.98575    -1.60671
H     -0.02864     2.29429    -2.69081
H      1.05591     1.04177    -2.05786
C      1.56875     2.04955     1.19919
O      2.08264     0.84323     1.72345
H      1.29424     2.69430     2.03448
H      2.31060     0.28061     0.96894
H      2.31319     2.57777     0.59666
H      0.67981     1.88555     0.58387
C      3.32359    -1.94731     0.00057
O      2.55331    -0.83272    -0.41616
H      4.32935    -1.60191     0.23116
H      1.68187    -1.16001    -0.69464
H      2.89653    -2.40804     0.89550
H      3.38694    -2.70021    -0.78883
C     -0.77657    -2.84045    -1.29176
O      0.01264    -1.68078    -1.07938
H     -1.83401    -2.57813    -1.30951
H     -0.38793    -0.94931    -1.60775
H     -0.50875    -3.32211    -2.23218
H     -0.59664    -3.53158    -0.47116
C     -3.32037     2.03904     0.33150
O     -2.03978     1.60089    -0.08934
H     -3.30364     2.33785     1.38271
H     -1.75131     0.89348     0.52580
H     -3.60618     2.90102    -0.26856
H     -4.06713     1.25201     0.20395
C     -0.78767    -0.41908     2.70371
O     -1.20656    -0.48135     1.34101
H     -1.64215    -0.09020     3.29352
H     -0.55446    -0.96139     0.81582
H     -0.48233    -1.40477     3.06046
H      0.03527     0.28195     2.81533
