 36
-694.8522933551163
C     -0.27787     3.60426    -1.10622
O     -1.52946     3.07388    -0.72811
H     -0.43035     4.27447    -1.95113
H     -1.39394     2.58525     0.09343
H      0.18480     4.17313    -0.29439
H      0.42150     2.82034    -1.41278
C      2.86770     1.31039     1.01484
O      1.59684     0.73046     0.78202
H      3.17046     1.18182     2.05598
H      1.71411    -0.22103     0.55938
H      3.62436     0.85866     0.37066
H      2.81753     2.37492     0.78940
C      2.43531    -2.15891    -1.10592
O      1.78027    -1.82685     0.10690
H      1.81021    -1.93179    -1.97284
H      0.90534    -2.27551     0.09799
H      3.35517    -1.57930    -1.17739
H      2.68954    -3.21928    -1.12842
C     -1.38828    -3.30237     1.11258
O     -0.69913    -2.76879    -0.00539
H     -0.77516    -3.20966     2.01284
H     -1.18877    -1.98476    -0.33487
H     -2.33395    -2.78262     1.27815
H     -1.59451    -4.35771     0.94239
C     -0.92399    -0.00789    -1.91458
O     -1.74470    -0.45190    -0.83268
H     -1.29734     0.92791    -2.32416
H     -1.76703     0.25645    -0.17406
H      0.11221     0.12982    -1.59798
H     -0.95270    -0.77036    -2.69222
C     -1.28432     0.39712     2.39205
O     -0.93188     1.28219     1.33774
H     -2.34898     0.50585     2.58378
H      0.02789     1.16183     1.16617
H     -1.07019    -0.63982     2.12753
H     -0.73257     0.64682     3.29806
