 54
-1042.2806548027377
C      1.19398    -1.42314    -1.69877
O     -0.16039    -1.84707    -1.64330
H      1.84037    -2.09217    -1.12787
H     -0.36599    -2.05550    -0.70815
H      1.52708    -1.43558    -2.73575
H      1.31547    -0.40851    -1.31478
C      2.09729     3.52325    -1.30360
O      1.56006     2.21809    -1.39893
H      2.85357     3.70076    -2.07234
H      1.08244     2.15079    -2.25125
H      1.31821     4.28353    -1.39688
H      2.56620     3.62214    -0.32593
C     -2.80794     0.04456    -2.41846
O     -1.58338    -0.16103    -3.09895
H     -3.41132    -0.86497    -2.41758
H     -1.09638    -0.86097    -2.60741
H     -2.62466     0.34591    -1.38660
H     -3.36842     0.82661    -2.92936
C     -2.04963     0.21377     2.75012
O     -0.77610    -0.42713     2.67512
H     -2.17116     0.88852     1.90747
H     -0.08127     0.24184     2.54265
H     -2.81903    -0.55569     2.71477
H     -2.15160     0.75702     3.68882
C     -1.93562    -3.07022     1.07834
O     -0.68661    -2.42188     0.90916
H     -1.88719    -4.05515     0.61840
H     -0.68096    -1.65783     1.51992
H     -2.17220    -3.19560     2.13612
H     -2.74106    -2.50143     0.60613
C      1.66643    -2.92049     3.91467
O      1.25566    -1.66080     4.43309
H      1.47543    -2.98562     2.84187
H      0.37065    -1.47892     4.09418
H      2.73629    -3.02009     4.08968
H      1.15084    -3.74023     4.41912
C      0.75984     1.45501    -4.79744
O      0.08316     1.82431    -3.60839
H      0.87111     0.37085    -4.85768
H     -0.59524     1.12855    -3.43192
H      0.21401     1.80090    -5.67733
H      1.75216     1.90939    -4.80230
C      2.33086     0.05997     1.56251
O      1.78753     0.63016     2.74706
H      3.34357    -0.31340     1.73273
H      1.94974     0.00635     3.46890
H      1.71749    -0.76637     1.19914
H      2.36632     0.82957     0.79389
C     -1.59581     2.62790    -0.38742
O     -0.80340     1.55695     0.09332
H     -1.25169     3.59241    -0.00731
H      0.09299     1.66874    -0.26132
H     -1.60872     2.66985    -1.47966
H     -2.62229     2.48292    -0.04392
