 18
-347.41040408592283
C     -1.13390     2.06829     0.39866
O     -0.49464     1.15041    -0.47085
H     -0.67489     3.05699     0.33135
H      0.45699     1.20061    -0.27899
H     -2.17866     2.14529     0.10396
H     -1.07842     1.72365     1.43405
C     -1.86400    -2.41716    -0.48874
O     -0.71620    -1.70893    -0.06056
H     -1.95945    -2.41445    -1.57865
H     -0.81605    -0.77730    -0.29584
H     -1.76293    -3.44994    -0.15557
H     -2.78123    -2.00477    -0.05728
C      2.39656    -0.32848     0.36208
O      2.14903     1.05976     0.11061
H      3.27903    -0.45084     0.99055
H      2.85712     1.41069    -0.42951
H      1.52923    -0.72756     0.88000
H      2.52223    -0.87154    -0.57424
