 42
-810.6619987811974
C     -2.31540    -0.82701     0.59846
O     -0.90377    -0.98416     0.74375
H     -2.63738    -1.35748    -0.29402
H     -0.64046    -0.66054     1.64565
H     -2.83656    -1.23246     1.46467
H     -2.58011     0.22707     0.49543
C      1.34172    -2.28711    -1.34931
O     -0.03288    -2.60044    -1.20518
H      1.47821    -1.25184    -1.66652
H     -0.33916    -2.15761    -0.39462
H      1.88115    -2.44147    -0.41220
H      1.76438    -2.94507    -2.10494
C     -1.00424     1.25308     3.32727
O     -0.22409     0.09598     3.03231
H     -2.04220     1.05520     3.06073
H      0.70243     0.41593     2.93989
H     -0.95825     1.48287     4.39079
H     -0.64978     2.11303     2.75886
C     -0.63876     1.17455    -2.09442
O      0.19354     0.94073    -0.96357
H     -0.60493     0.34156    -2.79343
H     -0.17512     0.20135    -0.44729
H     -1.67476     1.34050    -1.79672
H     -0.27719     2.06826    -2.59959
C     -2.65565    -2.87038    -3.63766
O     -2.00552    -1.79417    -2.99098
H     -3.55218    -2.48312    -4.12163
H     -1.26762    -2.14478    -2.46817
H     -2.02010    -3.32686    -4.40298
H     -2.95513    -3.64848    -2.92838
C      2.85276     0.32901     1.56433
O      2.10484     1.21912     2.37796
H      3.03656    -0.58469     2.12719
H      1.80952     1.95416     1.80153
H      2.31627     0.08088     0.64549
H      3.81586     0.76687     1.29875
C      2.03851     3.68956    -0.21699
O      1.11624     2.92645     0.53794
H      2.62940     3.05632    -0.88337
H      0.71951     2.26240    -0.06523
H      1.52111     4.43939    -0.81912
H      2.71380     4.20320     0.46654
