 60
-1158.0989797771338
C      1.48390     0.24839     3.77564
O      0.62773     0.46160     2.66584
H      1.31779     0.99628     4.55167
H     -0.31438     0.43861     2.96824
H      1.32666    -0.74394     4.20301
H      2.51556     0.31591     3.43429
C      2.47318    -0.63493     0.05239
O      2.69171    -1.39806    -1.12758
H      1.42166    -0.60446     0.34121
H      2.36420    -0.87667    -1.88737
H      3.03989    -1.09907     0.86126
H      2.82052     0.39341    -0.05701
C      1.27201     3.19055     1.10229
O      0.53548     2.09993     0.56707
H      0.93760     3.41611     2.11470
H      0.60370     1.37120     1.21944
H      2.33895     2.95560     1.12497
H      1.11916     4.06538     0.47105
C     -1.77954    -0.75318    -1.68047
O     -1.34407    -0.33923    -0.39766
H     -1.00784    -0.60322    -2.43870
H     -1.09272    -1.14710     0.09415
H     -2.06948    -1.80344    -1.69495
H     -2.65503    -0.17066    -1.97769
C      0.66054    -3.66478    -2.36800
O      1.16355    -3.60716    -1.03991
H     -0.38592    -3.97085    -2.33731
H      1.84486    -2.89975    -1.03079
H      0.73024    -2.69229    -2.85876
H      1.21261    -4.39961    -2.95407
C      0.00637    -2.70797     1.97434
O     -0.63963    -2.70640     0.71384
H      0.97298    -2.20779     1.92638
H     -0.03323    -3.14458     0.07209
H     -0.61477    -2.18417     2.69714
H      0.15765    -3.72565     2.33477
C     -2.82711    -0.46325     2.85301
O     -1.95284     0.61625     3.15403
H     -2.47025    -1.03712     1.99812
H     -2.20992     1.35799     2.56692
H     -2.89015    -1.11456     3.72309
H     -3.82752    -0.09772     2.62573
C      2.39819     0.41664    -4.30096
O      1.63360     0.01179    -3.18385
H      3.09615     1.21428    -4.03665
H      1.17447     0.80728    -2.82936
H      2.96455    -0.43776    -4.66962
H      1.75118     0.77621    -5.10565
C     -0.80452     2.59444    -2.51601
O      0.46403     2.11491    -2.11100
H     -1.60695     2.02974    -2.04263
H      0.46200     2.05697    -1.13622
H     -0.91813     3.65129    -2.26646
H     -0.89056     2.48890    -3.59655
C     -3.49440     2.02198     0.36564
O     -2.40665     2.40631     1.19558
H     -3.37460     1.00488    -0.00220
H     -1.57798     2.27814     0.71151
H     -4.40242     2.08480     0.96186
H     -3.60232     2.70418    -0.47993
