 36
-694.8510313474051
C      0.40927     4.15885    -1.31998
O     -0.52902     3.33362    -1.97977
H      0.65277     3.76538    -0.32733
H     -0.15702     2.44796    -2.05600
H      1.33751     4.26616    -1.88913
H     -0.03499     5.14521    -1.19580
C      2.17631    -2.93540     2.05904
O      1.20754    -2.69671     1.04953
H      2.96425    -2.18235     2.03145
H      1.57757    -2.03140     0.43255
H      1.69513    -2.90245     3.03795
H      2.62227    -3.92180     1.92574
C      2.00897     0.52074     0.59138
O      1.97990    -0.54193    -0.35649
H      1.20403     0.42371     1.32349
H      1.35158    -0.25686    -1.04778
H      2.96562     0.50007     1.11249
H      1.90669     1.48244     0.09202
C     -0.38938    -0.41046    -2.97000
O      0.01911     0.41910    -1.89276
H     -1.32055    -0.04218    -3.39995
H     -0.70533     0.39496    -1.21440
H      0.38421    -0.39178    -3.73406
H     -0.53508    -1.43840    -2.63131
C     -2.01144    -2.43872     2.18172
O     -1.01211    -1.48461     1.85798
H     -1.82695    -2.86619     3.16939
H     -0.20162    -1.98422     1.60224
H     -2.98287    -1.94495     2.19404
H     -2.03900    -3.24556     1.44636
C     -2.00437     1.56453     0.66343
O     -1.74210     0.31531     0.03921
H     -1.10634     1.95672     1.14721
H     -1.49225    -0.33292     0.73665
H     -2.33473     2.27707    -0.08873
H     -2.78635     1.46382     1.41725
