 48
-926.4754409496012
C     -1.61999     1.59313     3.50522
O     -2.03107     1.62653     2.15050
H     -1.24089     2.56374     3.83576
H     -1.27775     1.88443     1.60513
H     -2.48931     1.34041     4.11169
H     -0.84818     0.83992     3.67349
C     -2.43961    -2.21818    -1.31285
O     -1.13857    -1.68378    -1.13665
H     -2.38172    -3.27026    -1.59175
H     -0.92606    -1.75160    -0.17135
H     -3.01730    -2.11880    -0.39510
H     -2.95057    -1.67260    -2.10528
C     -2.39489     1.46791    -1.36084
O     -1.06811     1.03028    -1.63079
H     -2.75724     1.10508    -0.39793
H     -1.05871     0.05622    -1.60003
H     -2.40282     2.55706    -1.34508
H     -3.07685     1.13702    -2.14619
C      2.01178     1.24899    -3.02715
O      2.39824     0.55124    -1.85596
H      1.06607     1.77104    -2.87880
H      2.11644    -0.37010    -1.96351
H      2.78022     1.98319    -3.27338
H      1.89604     0.57275    -3.87641
C     -1.69763    -1.79074     2.34102
O     -0.60900    -1.77623     1.42915
H     -1.33338    -1.83425     3.36830
H      0.02127    -1.07792     1.73130
H     -2.32474    -0.90656     2.22592
H     -2.29441    -2.68508     2.16323
C      1.93750    -2.90496    -1.25076
O      1.44255    -1.99811    -2.22615
H      3.01638    -2.77481    -1.17022
H      0.48791    -1.92514    -2.08273
H      1.48390    -2.71651    -0.27673
H      1.73152    -3.93486    -1.54557
C      1.41875     3.02492     0.09941
O      0.36757     2.10098     0.36559
H      1.87161     3.30330     1.04948
H      0.02022     1.72930    -0.47479
H      2.16742     2.56984    -0.54499
H      1.01998     3.92763    -0.36518
C      2.42103    -0.19170     1.72031
O      1.08168     0.16253     2.05349
H      3.12329     0.34184     2.36305
H      0.84666     0.92824     1.48882
H      2.55400    -1.26075     1.89461
H      2.63963     0.03017     0.67513
