 42
-810.6662552321206
C     -4.43602     0.61043     0.66769
O     -3.50852     0.07677    -0.25935
H     -5.09849     1.29293     0.14047
H     -2.94870    -0.56271     0.23940
H     -5.03664    -0.18288     1.11473
H     -3.93003     1.15406     1.46931
C     -0.92949    -2.04252     0.02705
O     -1.72586    -1.39770     1.01746
H      0.02813    -2.35950     0.43431
H     -1.12267    -0.85068     1.55717
H     -1.47100    -2.91519    -0.32956
H     -0.74281    -1.38760    -0.82525
C      3.00860     1.57780     0.15440
O      1.97937     0.61095     0.17420
H      3.46474     1.61966     1.14025
H      1.56874     0.57917    -0.73115
H      3.76986     1.31071    -0.58102
H      2.60992     2.56203    -0.09466
C      1.18984     1.26601    -3.31687
O      0.80480     0.58581    -2.13172
H      2.14350     0.86595    -3.65615
H     -0.09956     0.89894    -1.88988
H      0.44868     1.11375    -4.10081
H      1.29725     2.33925    -3.14189
C      0.83904    -0.79760     3.18910
O      0.20876     0.02793     2.21706
H      1.49192    -0.20743     3.83528
H      0.86212     0.27981     1.54111
H      0.06198    -1.24665     3.80636
H      1.41798    -1.59364     2.72067
C      2.80225    -2.59209    -0.78144
O      2.75613    -2.07800     0.53468
H      2.95425    -3.66873    -0.72545
H      2.57171    -1.13332     0.46627
H      1.87129    -2.40560    -1.32506
H      3.62428    -2.15820    -1.35806
C     -1.17402     2.28166    -0.00502
O     -1.47967     1.53081    -1.17554
H     -1.78237     3.18649     0.03446
H     -2.29746     1.02103    -0.98096
H     -1.34673     1.69982     0.89712
H     -0.12680     2.57469    -0.02995
