 30
-579.0376993534028
C      3.56797     1.35519     0.63003
O      3.08487     0.37250    -0.26077
H      3.57432     2.35053     0.17743
H      2.25226     0.69913    -0.62344
H      2.97095     1.40141     1.54530
H      4.59163     1.09882     0.90032
C     -2.66745    -2.24415     1.10067
O     -2.30310    -0.92227     0.75169
H     -1.97178    -2.97317     0.67761
H     -1.47111    -0.70145     1.22029
H     -2.68903    -2.37070     2.18451
H     -3.66331    -2.43994     0.70933
C      1.02075    -1.31656     1.69044
O      0.11921    -0.21331     1.66071
H      0.73258    -1.95383     2.52398
H      0.42265     0.40583     0.98187
H      0.97000    -1.89698     0.76644
H      2.04393    -0.98366     1.83767
C      0.03187     2.67506    -0.69181
O      0.46459     1.32730    -0.84482
H      0.90802     3.30481    -0.55250
H     -0.28961     0.83682    -1.24780
H     -0.50730     3.00497    -1.57866
H     -0.62561     2.77003     0.17435
C     -1.50086    -1.09113    -2.50807
O     -1.69884     0.04287    -1.67580
H     -1.25212    -0.74442    -3.50724
H     -2.07477    -0.27968    -0.82866
H     -0.68503    -1.71749    -2.13656
H     -2.40645    -1.69654    -2.56231
