 42
-810.6702692846611
C     -1.12994     1.27815     1.05550
O     -0.53074     1.75043    -0.14976
H     -1.86354     0.51010     0.82105
H      0.31968     2.16636     0.10674
H     -0.38184     0.84477     1.71816
H     -1.63075     2.09362     1.57819
C     -2.03645    -2.24102     1.87430
O     -1.27564    -2.30272     0.67551
H     -1.48161    -1.68589     2.63448
H     -1.86537    -2.03174    -0.06041
H     -2.98555    -1.73304     1.69908
H     -2.23540    -3.24552     2.24913
C      2.84397     2.78884    -0.14262
O      1.80147     2.64354     0.80108
H      2.56905     3.56737    -0.85157
H      2.07967     1.96564     1.45340
H      3.77685     3.07693     0.34463
H      3.01764     1.86002    -0.69359
C     -1.07377     0.73807    -3.28724
O     -1.95112     0.86886    -2.18308
H     -0.57339     1.68229    -3.50158
H     -1.43072     1.29231    -1.46385
H     -0.31362    -0.02362    -3.09071
H     -1.64908     0.44583    -4.16348
C     -3.23621    -2.27794    -2.33098
O     -2.89584    -1.43255    -1.24784
H     -3.76218    -3.14871    -1.94459
H     -2.63761    -0.56095    -1.61851
H     -3.89156    -1.76422    -3.03605
H     -2.34444    -2.61362    -2.86672
C      3.76398     0.14272     2.60693
O      2.43550     0.56497     2.37251
H      4.28081     0.91951     3.16720
H      1.95029    -0.18122     1.96031
H      3.78866    -0.77926     3.19049
H      4.30056    -0.02577     1.66958
C      1.64771    -1.07594    -0.36024
O      1.14419    -1.26420     0.95414
H      2.71033    -0.84328    -0.29664
H      0.24236    -1.65411     0.87173
H      1.54335    -1.98025    -0.96068
H      1.13861    -0.25044    -0.85974
