 36
-694.8565588463673
C     -2.33272     1.58507    -2.28009
O     -1.06337     0.96193    -2.22920
H     -2.76552     1.43969    -3.26825
H     -0.50822     1.48455    -1.60602
H     -3.00884     1.14955    -1.53680
H     -2.25792     2.65474    -2.08543
C      3.22853     2.00000     1.36849
O      2.52726     1.16277     0.46523
H      3.00695     3.04115     1.13498
H      2.27519     0.35261     0.95644
H      2.92368     1.80060     2.39777
H      4.30479     1.84379     1.28078
C      2.56435    -2.06436     1.82103
O      1.64377    -0.98678     1.77991
H      3.53012    -1.68956     2.15915
H      0.79106    -1.35269     1.44587
H      2.22605    -2.83288     2.51754
H      2.68693    -2.51540     0.83394
C     -2.35796    -2.13065    -2.20324
O     -1.11713    -1.64304    -1.73183
H     -2.46801    -3.16984    -1.89812
H     -1.05594    -0.69790    -1.99418
H     -3.19382    -1.55831    -1.79415
H     -2.40826    -2.08231    -3.29162
C     -0.47053     2.12216     0.85702
O      0.27367     2.26312    -0.34335
H     -1.53308     2.08537     0.61503
H      1.16896     1.90049    -0.14710
H     -0.20329     1.20838     1.38842
H     -0.30630     2.97322     1.51839
C     -1.79614    -1.42727     1.40261
O     -0.61050    -1.95927     0.83998
H     -2.51510    -2.22431     1.59540
H     -0.72699    -1.92115    -0.13616
H     -1.55804    -0.93945     2.34894
H     -2.25261    -0.69681     0.73223
