 42
-810.6648948832826
C     -1.28884    -1.09628     2.72563
O     -1.47854     0.31031     2.66133
H     -2.16947    -1.64185     2.37657
H     -1.91973     0.49922     1.82506
H     -0.42701    -1.41043     2.13652
H     -1.11334    -1.37014     3.76634
C     -3.40007     1.10215    -0.79066
O     -2.25228     0.63287    -0.10142
H     -3.69482     2.05681    -0.36174
H     -1.96114    -0.22980    -0.51595
H     -3.18649     1.23759    -1.85119
H     -4.22168     0.39514    -0.68042
C      2.04458    -2.42566    -1.13782
O      1.09324    -2.09376    -0.14116
H      1.85459    -3.44359    -1.47522
H      1.44039    -1.33798     0.37740
H      1.97209    -1.74753    -1.98829
H      3.05932    -2.38349    -0.73767
C      1.97690     0.17434     2.59342
O      1.85309     0.10324     1.17994
H      2.31815    -0.79342     2.96026
H      1.21833     0.78143     0.88905
H      2.72057     0.92310     2.87397
H      1.02178     0.41688     3.05800
C     -1.14630    -1.65198    -2.55834
O     -1.30988    -1.53829    -1.14923
H     -0.64135    -0.77269    -2.95569
H     -0.44677    -1.76976    -0.73588
H     -0.55300    -2.53172    -2.80486
H     -2.12686    -1.75862    -3.01985
C      2.65634     0.90345    -2.06225
O      1.25687     0.72661    -2.19278
H      3.13642     0.46446    -2.93749
H      0.82534     1.15023    -1.44021
H      2.93202     1.96046    -2.01549
H      3.04127     0.40379    -1.17056
C     -0.07794     2.99880     1.02730
O      0.02651     1.89418     0.13809
H     -0.77890     3.73853     0.63958
H     -0.87227     1.50289     0.04255
H     -0.40927     2.67026     2.01200
H      0.90379     3.45878     1.11762
