 36
-694.8488997410079
C     -2.49435     0.71335    -3.25722
O     -2.43137     0.72072    -1.84139
H     -3.32355     0.07853    -3.56690
H     -1.55126     1.06253    -1.57944
H     -2.66522     1.71871    -3.64439
H     -1.57098     0.32040    -3.68845
C      3.34742     1.49468     3.22802
O      2.39678     1.46783     2.17803
H      3.14713     2.37200     3.84307
H      2.53948     0.66664     1.65102
H      3.27512     0.60499     3.86129
H      4.37018     1.56565     2.84568
C      2.69561    -0.90672    -0.75078
O      2.43079    -0.90133     0.64417
H      3.74332    -1.15604    -0.90778
H      1.50706    -1.18905     0.74982
H      2.07633    -1.64914    -1.25750
H      2.49578     0.07331    -1.18596
C     -2.38200    -2.57001    -1.57081
O     -2.44259    -1.60328    -0.52973
H     -3.38376    -2.92984    -1.80998
H     -2.59695    -0.73486    -0.96428
H     -1.93382    -2.14599    -2.47045
H     -1.78147    -3.41775    -1.24027
C      0.03472     2.50012    -0.09961
O      0.00880     1.28839    -0.85856
H     -0.02431     3.32814    -0.80195
H      0.14622     0.54167    -0.26043
H     -0.81681     2.55294     0.58310
H      0.95410     2.57800     0.47744
C     -0.62647    -0.84573     2.15153
O     -0.20968    -1.21542     0.83383
H      0.09243    -0.13664     2.56120
H     -1.02386    -1.47212     0.33828
H     -1.61199    -0.38221     2.11466
H     -0.67146    -1.72538     2.79212
