 60
-1158.0871037263487
C     -2.23550     0.27058    -5.27259
O     -1.18923     1.06620    -4.73424
H     -3.22024     0.70578    -5.08360
H     -1.38117     1.23624    -3.80394
H     -2.08992     0.21161    -6.35011
H     -2.20572    -0.73940    -4.85908
C      2.85219     0.05434     2.39482
O      2.45786     0.50675     3.67825
H      2.07629    -0.53275     1.90200
H      1.71028     1.12465     3.56360
H      3.10990     0.89271     1.74473
H      3.74124    -0.56308     2.51757
C      1.96030     1.34660    -3.45018
O      1.17769     0.83676    -2.37117
H      1.32798     1.50999    -4.32204
H      0.39303     1.40820    -2.25571
H      2.44871     2.27717    -3.16007
H      2.71742     0.60238    -3.68749
C     -0.29883     2.14675     1.96541
O      0.11013     1.83567     3.28270
H      0.18203     3.07874     1.66806
H     -0.43151     1.07467     3.57729
H     -0.02283     1.37035     1.24825
H     -1.38062     2.28952     1.91582
C      1.35216    -1.36922     6.36614
O      1.26687    -1.57543     4.96418
H      2.35822    -1.58267     6.73021
H      1.85988    -0.92483     4.53629
H      1.09209    -0.34317     6.63728
H      0.65529    -2.04924     6.85246
C      1.51689    -2.06544    -0.44505
O      0.85591    -0.81187    -0.30434
H      1.27466    -2.67199     0.42816
H      1.14270    -0.23322    -1.03724
H      1.18867    -2.57979    -1.34706
H      2.59940    -1.92882    -0.47341
C     -2.58811    -1.29156    -0.84154
O     -1.77964    -0.22129    -0.35966
H     -2.07420    -1.85512    -1.62105
H     -0.86539    -0.55931    -0.24269
H     -2.86427    -1.96542    -0.02894
H     -3.50207    -0.86603    -1.25236
C      0.33603    -2.03921    -4.83586
O     -0.00453    -1.83357    -3.47287
H     -0.30547    -2.82695    -5.23071
H      0.27488    -0.94849    -3.21633
H      0.18488    -1.13262    -5.42371
H      1.37610    -2.36216    -4.93924
C     -1.37165    -1.28639     2.79868
O     -1.00466    -0.52568     3.93600
H     -0.56787    -1.32250     2.06131
H     -0.26667    -0.99679     4.37688
H     -1.62182    -2.31020     3.08066
H     -2.25192    -0.83828     2.34246
C     -1.80651     3.06613    -1.50554
O     -1.31710     1.80342    -1.92337
H     -1.27513     3.83528    -2.06136
H     -1.62579     1.09978    -1.29618
H     -2.87486     3.15267    -1.70767
H     -1.62778     3.21017    -0.44058
