 36
-694.8552366433026
C      0.09692     1.60457    -1.87096
O     -1.20452     1.33302    -2.35524
H      0.51331     2.43436    -2.44309
H     -1.70167     0.95211    -1.62304
H      0.09886     1.88585    -0.81645
H      0.75615     0.74245    -1.99241
C      2.57318     2.05898     0.76331
O      1.90041     0.95915     1.35812
H      1.95083     2.95145     0.84739
H      2.03445     0.17542     0.77900
H      3.51975     2.24271     1.27227
H      2.77186     1.87256    -0.29360
C      2.50377    -2.31630     0.53369
O      2.09797    -1.18217    -0.22199
H      2.86155    -1.98656     1.51130
H      1.24775    -1.41515    -0.65405
H      1.66853    -3.00236     0.68058
H      3.31214    -2.84165     0.02276
C     -0.43061    -1.95060    -2.64877
O     -0.26753    -1.80285    -1.24334
H     -0.29966    -0.99673    -3.15593
H     -0.99648    -1.26431    -0.89236
H      0.31967    -2.65655    -3.00138
H     -1.41835    -2.34954    -2.88437
C     -3.46646     0.02242     0.31944
O     -2.09726    -0.04109    -0.04431
H     -4.06969    -0.14664    -0.57001
H     -1.58533     0.40449     0.67258
H     -3.70023    -0.74205     1.06231
H     -3.70578     1.00315     0.73174
C     -0.82637     0.37985     3.11788
O     -0.69242     1.07582     1.88598
H     -1.76696     0.66452     3.58539
H      0.27536     1.13650     1.71105
H     -0.81897    -0.70052     2.95208
H     -0.00925     0.63293     3.79216
