 30
-579.0398884724544
C      2.67803     0.42450    -0.57214
O      1.85168     0.74684     0.54835
H      2.10999    -0.09314    -1.34446
H      1.37659    -0.04872     0.82371
H      3.07073     1.35754    -0.97329
H      3.51461    -0.20166    -0.25955
C     -0.60978    -1.40762     2.39338
O     -0.29133    -1.24808     1.02022
H     -0.40730    -0.48435     2.94109
H     -0.95718    -0.62209     0.64350
H     -1.66163    -1.66661     2.51893
H      0.00392    -2.20726     2.79932
C     -2.19150     0.24480    -1.40483
O     -1.90631     0.54139    -0.04099
H     -2.55462     1.13145    -1.92393
H     -1.37372     1.36826    -0.02435
H     -1.30901    -0.13089    -1.92754
H     -2.96898    -0.51563    -1.42952
C     -0.19697     3.40012     1.14635
O     -0.10343     2.52337     0.03492
H     -1.00082     4.10840     0.95885
H      0.69748     1.97337     0.16358
H     -0.41545     2.85101     2.06660
H      0.73238     3.95397     1.28428
C      0.10620    -3.44286    -1.81205
O      0.76671    -2.24867    -1.43561
H      0.38162    -4.27991    -1.16427
H      0.45217    -1.99703    -0.55711
H     -0.98212    -3.32877    -1.78663
H      0.40287    -3.68343    -2.83223
