 24
-463.22798146930904
C      1.31846     1.94275     2.07011
O      0.15958     1.39722     1.46588
H      2.19441     1.31841     1.87366
H      0.23215     1.54950     0.50088
H      1.51896     2.95032     1.69942
H      1.15449     1.99377     3.14417
C      1.61315     1.17075    -1.73748
O      0.31727     1.41544    -1.22008
H      2.25590     2.00653    -1.46810
H     -0.24450     0.65854    -1.47692
H      2.03737     0.25051    -1.32524
H      1.58836     1.08934    -2.82451
C     -0.12781    -1.98195     1.74323
O     -1.03936    -1.02995     1.22348
H     -0.47463    -2.97711     1.47189
H     -0.70981    -0.14686     1.47930
H      0.87596    -1.83284     1.33499
H     -0.07770    -1.91747     2.83031
C     -0.91233    -2.16343    -2.07041
O     -1.08423    -0.89489    -1.46487
H     -1.03772    -2.05044    -3.14481
H     -1.18461    -1.03826    -0.50108
H      0.08572    -2.56217    -1.86935
H     -1.65328    -2.87802    -1.70579
