 24
-463.2279793745989
C      2.37748     0.77451    -0.85873
O      1.73661     0.66102     0.39953
H      2.63429     1.81909    -1.02302
H      1.52495    -0.28345     0.53226
H      3.29406     0.18465    -0.88175
H      1.72283     0.43950    -1.66855
C     -0.72591     3.04061    -0.20943
O     -0.67940     1.83503     0.53199
H     -0.61915     2.84721    -1.28030
H      0.25167     1.53051     0.54073
H     -1.68737     3.51634    -0.03046
H      0.06606     3.72519     0.10145
C     -2.37904    -0.77398    -0.84905
O     -1.74137    -0.66244     0.41121
H     -2.63321    -1.81883    -1.01608
H     -1.53066     0.28177     0.54555
H     -3.29647    -0.18551    -0.87266
H     -1.72300    -0.43588    -1.65649
C      0.72720    -3.03898    -0.20942
O      0.67701    -1.83327     0.53145
H      1.69066    -3.51114    -0.03159
H     -0.25530    -1.53261     0.54354
H     -0.06132    -3.72676     0.10307
H      0.61809    -2.84582    -1.28006
