 36
-694.8495065821987
C      0.90520     3.39099    -1.09936
O      0.76792     2.19593    -0.34897
H      0.44106     4.22682    -0.57464
H     -0.18806     1.96299    -0.30732
H      1.96532     3.59531    -1.22535
H      0.44049     3.28765    -2.08156
C     -1.50692    -1.80901    -2.69616
O     -1.12416    -1.21043    -1.46924
H     -0.90052    -2.69429    -2.89473
H     -0.16386    -0.99081    -1.53271
H     -2.55073    -2.10407    -2.62294
H     -1.38842    -1.10639    -3.52241
C      1.43752     0.59426     2.65385
O      2.31997     1.00156     1.62914
H      0.93590     1.44656     3.12221
H      1.80452     1.51290     0.99222
H      0.67523    -0.09458     2.28279
H      2.01881     0.08623     3.42185
C      2.13523    -1.30207    -0.53535
O      1.40140    -0.47320    -1.44475
H      3.12834    -0.89538    -0.35987
H      1.48464     0.44923    -1.15679
H      1.62341    -1.39315     0.42174
H      2.22602    -2.28471    -0.99341
C     -2.45928     1.23558     0.85274
O     -1.74244     1.36065    -0.37633
H     -3.43411     0.77939     0.67789
H     -1.74733     0.49719    -0.81821
H     -1.90861     0.62335     1.56641
H     -2.60554     2.23429     1.25934
C     -1.02376    -3.21158     1.67842
O     -1.27032    -1.85237     1.36057
H     -1.87867    -3.84722     1.43053
H     -1.31676    -1.75515     0.40026
H     -0.13952    -3.59165     1.15649
H     -0.84264    -3.27946     2.75077
