 36
-694.8574392860968
C      1.43377     3.30449    -0.16167
O      1.85650     2.04060     0.30970
H      1.52386     4.02921     0.64595
H      1.88751     1.45075    -0.47901
H      2.04896     3.63777    -0.99875
H      0.39211     3.26728    -0.49319
C     -1.53117     0.99668    -2.78555
O     -0.69354    -0.14096    -2.69639
H     -1.19071     1.62392    -3.60758
H     -1.12362    -0.75947    -2.06686
H     -2.56636     0.70861    -2.97416
H     -1.49904     1.57581    -1.85786
C     -0.94158    -2.24604     2.66739
O     -0.70328    -1.44263     1.52842
H     -0.64262    -3.27350     2.45884
H     -0.21675    -0.63704     1.80944
H     -0.36692    -1.88349     3.51868
H     -2.00220    -2.23259     2.92702
C      2.01928    -0.93780    -1.07139
O      1.74671     0.32111    -1.68735
H      2.46535    -1.62459    -1.79130
H      0.89386     0.21857    -2.16076
H      2.72329    -0.77983    -0.25478
H      1.10867    -1.38396    -0.66720
C     -1.97689    -3.10026    -1.02684
O     -1.78237    -1.71194    -0.84223
H     -2.35386    -3.27154    -2.03394
H     -1.41151    -1.58865     0.05764
H     -1.04140    -3.65249    -0.90363
H     -2.70471    -3.48948    -0.31229
C     -0.47582     1.74931     2.67104
O      0.48746     0.80536     2.22949
H     -0.23325     2.09222     3.67773
H      1.06400     1.25754     1.57578
H     -0.51027     2.60931     2.00287
H     -1.46196     1.28175     2.68643
