 36
-694.8531472618512
C     -3.13844     1.08777    -0.49157
O     -1.80511     1.04385    -0.01852
H     -3.80106     1.52339     0.25746
H     -1.77020     0.42173     0.74466
H     -3.17304     1.70849    -1.38665
H     -3.50637     0.09011    -0.74455
C      2.86836    -1.27244    -1.35506
O      1.61524    -1.04068    -0.73435
H      2.73586    -1.54769    -2.40302
H      1.14423    -0.34418    -1.25454
H      3.49823    -0.38245    -1.30019
H      3.36590    -2.08608    -0.83379
C     -0.57292    -0.55746     2.89091
O     -1.57695    -0.76928     1.90888
H      0.42139    -0.54194     2.44058
H     -1.29177    -1.54143     1.37353
H     -0.75875     0.39837     3.37991
H     -0.60521    -1.34267     3.64640
C      0.73991     2.12775    -2.07361
O      0.16898     0.85261    -1.81563
H      1.06738     2.59994    -1.14905
H     -0.57707     0.97057    -1.18603
H      1.60115     1.99551    -2.72691
H      0.02481     2.77924    -2.57942
C     -1.37750    -2.54000    -0.99307
O     -0.53217    -2.49821     0.14829
H     -1.48930    -1.55133    -1.44133
H      0.30947    -2.09105    -0.12462
H     -0.98095    -3.22369    -1.74472
H     -2.35719    -2.90069    -0.68063
C      1.41367     2.01085     1.64691
O      2.38206     1.34002     0.86427
H      0.38834     1.79099     1.33473
H      2.04679     0.47615     0.60727
H      1.52567     1.75615     2.70552
H      1.58241     3.08351     1.54737
