 36
-694.852393386711
C     -1.80424     0.02407    -2.09399
O     -0.39816     0.00538    -1.90833
H     -2.13070     1.01274    -2.41296
H     -0.15571     0.84580    -1.44784
H     -2.05937    -0.70307    -2.86016
H     -2.32056    -0.23314    -1.16721
C      1.59574     2.02576    -0.06656
O      0.20856     2.05713    -0.39433
H      2.16882     2.24393    -0.96739
H     -0.28278     2.18930     0.44783
H      1.82981     2.77815     0.68540
H      1.88486     1.04215     0.31014
C     -1.55712    -1.19246     2.80190
O     -0.45816    -0.34462     2.53113
H     -2.21500    -0.70847     3.52333
H     -0.01257    -0.71302     1.73829
H     -2.12786    -1.40478     1.89477
H     -1.22060    -2.13882     3.22730
C      2.69148    -1.22726    -2.71479
O      1.44821    -1.80433    -3.05953
H      2.82956    -0.25129    -3.18805
H      0.77009    -1.15346    -2.84877
H      2.79466    -1.10064    -1.63282
H      3.48206    -1.89029    -3.06144
C     -2.35552     2.44978     2.09910
O     -0.96166     2.23167     1.99034
H     -2.90872     1.82160     1.39601
H     -0.77484     1.33235     2.33420
H     -2.70654     2.22955     3.10840
H     -2.56701     3.49315     1.87901
C      0.88941    -2.75510     0.22129
O      0.54310    -1.37988     0.31820
H      1.38811    -2.96757    -0.72182
H      0.20030    -1.06041    -0.53399
H      1.56575    -2.99119     1.04128
H      0.00374    -3.38894     0.30859
