 36
-694.8534968211928
C      0.17704     1.37037     1.46894
O      1.26350     1.24365     0.55058
H      0.18716     0.53053     2.16036
H      0.99121     1.71947    -0.26604
H      0.27532     2.29261     2.04164
H     -0.77742     1.38423     0.94219
C     -0.34870     3.73252    -1.39924
O      0.14942     2.41772    -1.56750
H     -0.95864     3.81471    -0.49639
H     -0.62079     1.82604    -1.70749
H      0.49416     4.41571    -1.31874
H     -0.95778     4.03256    -2.25410
C      1.61588    -1.53091     3.62352
O      0.70531    -2.11777     2.71354
H      2.60102    -2.00319     3.57432
H      1.08848    -2.03993     1.83103
H      1.73954    -0.46032     3.43715
H      1.22040    -1.66172     4.63011
C     -1.77255    -2.04069     0.54901
O     -1.01513    -1.59908    -0.57235
H     -2.82622    -2.02600     0.27560
H     -0.07221    -1.63805    -0.33038
H     -1.49623    -3.05671     0.82647
H     -1.61951    -1.39288     1.41280
C     -2.65525     0.37998    -2.80239
O     -1.85638     0.66414    -1.66808
H     -2.16190    -0.33479    -3.46381
H     -1.57402    -0.19111    -1.27190
H     -3.62158    -0.03056    -2.50099
H     -2.82824     1.30554    -3.35091
C      2.46268    -1.51051    -1.00563
O      1.62664    -1.32397     0.12682
H      3.45345    -1.09868    -0.81706
H      1.59043    -0.35035     0.31128
H      2.55053    -2.57670    -1.19523
H      2.03859    -1.02185    -1.88474
