 36
-694.8559861452762
C      0.07545     2.47542    -0.79129
O      1.06934     2.06711     0.14403
H     -0.25622     1.62691    -1.39483
H      0.59945     1.86912     0.97991
H     -0.79023     2.89551    -0.27947
H      0.50110     3.23162    -1.44994
C      3.12323     0.41717    -2.00719
O      2.14608    -0.03095    -1.08640
H      3.89426     1.00227    -1.50521
H      1.86134     0.74456    -0.55115
H      3.59559    -0.45058    -2.46446
H      2.67867     1.03099    -2.79522
C     -0.97343     2.14316     3.31742
O     -0.46198     1.38601     2.23514
H     -1.70600     2.87511     2.96615
H     -1.14486     0.72343     1.98906
H     -1.45221     1.49514     4.05391
H     -0.14949     2.66726     3.79756
C      0.33074    -2.10994    -3.12851
O     -0.01776    -1.35518    -1.98419
H     -0.53634    -2.68804    -3.44293
H      0.78674    -0.87142    -1.70383
H      0.63081    -1.45812    -3.95305
H      1.15383    -2.79811    -2.91513
C     -2.89196     0.01812     0.23706
O     -2.26359    -0.43744     1.42900
H     -3.04829     1.09558     0.30796
H     -1.80559    -1.27208     1.18529
H     -2.26917    -0.19339    -0.63346
H     -3.86068    -0.46340     0.10976
C      0.50506    -2.26360     1.14294
O     -0.74673    -2.41879     0.46973
H      0.65828    -3.11507     1.80317
H     -0.59832    -2.19036    -0.46508
H      1.32551    -2.21269     0.42687
H      0.50430    -1.34771     1.73717
