 42
-810.6658610591288
C     -1.94832    -0.69023     1.88759
O     -0.67220    -0.25152     2.33573
H     -1.97437    -0.83271     0.80460
H     -0.02525    -0.96044     2.13178
H     -2.22842    -1.62487     2.37401
H     -2.68270     0.06697     2.15947
C     -4.09070     0.81119    -1.05162
O     -2.98812     0.11621    -1.58983
H     -4.40336     1.64011    -1.69370
H     -2.23576     0.72494    -1.56269
H     -4.92634     0.11823    -0.96281
H     -3.87300     1.21581    -0.05794
C      0.16269    -1.20512    -2.03323
O      1.10153    -0.12410    -1.97454
H      0.55566    -1.96441    -2.70749
H      0.58962     0.69586    -1.91700
H      0.02285    -1.64306    -1.04337
H     -0.80450    -0.86762    -2.40009
C      1.28934     2.22110     1.23931
O     -0.11728     2.04001     1.11550
H      1.56386     2.34785     2.28610
H     -0.34626     1.25374     1.66529
H      1.83981     1.37311     0.82941
H      1.57474     3.12269     0.69948
C      1.92494    -2.69094     2.67637
O      1.14660    -2.09414     1.65520
H      2.32838    -3.64886     2.34172
H      1.77594    -1.72836     0.99725
H      2.75574    -2.04593     2.97105
H      1.29183    -2.86484     3.54506
C      3.61814    -2.05165    -0.77568
O      2.82518    -1.05942    -0.14835
H      4.42733    -2.32603    -0.10164
H      2.29960    -0.61924    -0.84805
H      3.03167    -2.94616    -1.00083
H      4.05207    -1.67856    -1.70294
C     -1.09718     3.16325    -1.90274
O     -0.87791     1.86247    -1.38736
H     -1.47099     3.07056    -2.92004
H     -0.65520     1.95022    -0.42480
H     -1.83458     3.69515    -1.29988
H     -0.16922     3.73733    -1.91605
