 54
-1042.2831138086485
C      0.65278    -4.49505    -2.00613
O      1.55985    -3.81250    -1.14504
H     -0.08025    -3.80585    -2.43227
H      1.62739    -2.89822    -1.45529
H      1.19026    -4.99223    -2.81596
H      0.12336    -5.25259    -1.42725
C      0.78387    -0.49677    -3.09908
O      1.00496    -1.04612    -1.81279
H      0.20025    -1.18690    -3.71062
H      0.13120    -1.08619    -1.34092
H      0.25338     0.45191    -3.02065
H      1.74941    -0.33401    -3.57797
C     -2.33478    -0.64725    -0.08433
O     -1.23830    -1.40913    -0.57521
H     -2.17727    -0.35939     0.95337
H     -1.02038    -2.11366     0.07623
H     -2.43014     0.25422    -0.68208
H     -3.26014    -1.22012    -0.16531
C     -2.79304     3.27330     3.00186
O     -2.19543     2.37282     2.08300
H     -2.79567     2.81114     3.98663
H     -2.40198     2.68800     1.17807
H     -2.23328     4.21049     3.04992
H     -3.82367     3.49624     2.71721
C      4.05605    -1.43085    -0.36474
O      3.13442    -0.37989    -0.18181
H      3.66026    -2.38564    -0.00925
H      2.36339    -0.55172    -0.74226
H      4.33704    -1.54797    -1.41679
H      4.95897    -1.20633     0.20376
C     -2.12419     4.55689    -0.62519
O     -2.40575     3.17788    -0.47993
H     -2.95917     5.12676    -0.22123
H     -1.61931     2.69332    -0.80912
H     -1.21374     4.84139    -0.09016
H     -2.00467     4.82174    -1.67686
C      0.64504    -2.36733     1.94350
O     -0.08808    -3.19934     1.04327
H      1.54736    -1.96781     1.48049
H      0.54808    -3.62305     0.44390
H      0.01519    -1.53473     2.24560
H      0.91796    -2.93277     2.83512
C      1.15901     1.16899     2.49624
O      0.05051     0.96762     1.63116
H      2.05795     0.82487     1.98875
H     -0.73733     1.43545     1.97655
H      1.27192     2.22361     2.75679
H      1.03820     0.59626     3.41848
C      1.09526     2.44216    -1.26049
O     -0.13635     1.86545    -0.86685
H      1.81140     1.66929    -1.53427
H      0.00061     1.41935    -0.00397
H      0.91684     3.07379    -2.13010
H      1.52664     3.05730    -0.46949
