 60
-1158.095959609412
C      4.47365     0.42534    -0.12516
O      4.34670     0.02383    -1.47039
H      4.75807    -0.40909     0.52439
H      3.79165    -0.76939    -1.48488
H      5.26071     1.17576    -0.06473
H      3.54906     0.86564     0.25729
C      0.31130     5.18165     0.13116
O     -0.04596     3.88730     0.58141
H      1.10792     5.55977     0.76647
H     -0.89547     3.65275     0.15296
H      0.66749     5.15636    -0.90197
H     -0.53814     5.86513     0.18941
C      1.90702    -1.75030    -2.94100
O      2.51297    -2.00032    -1.68041
H      2.22508    -2.49075    -3.67634
H      1.97532    -2.70072    -1.26463
H      0.81696    -1.77445    -2.86873
H      2.21024    -0.76243    -3.28985
C      0.19889    -4.76081    -1.62933
O      0.77931    -3.81976    -0.74537
H      0.99772    -5.28693    -2.14742
H      0.05603    -3.41515    -0.22417
H     -0.40423    -5.49134    -1.08667
H     -0.43524    -4.26446    -2.36785
C      0.78311     1.08519    -0.85407
O      0.91967     1.39446     0.53436
H      1.02152     1.95831    -1.45422
H      0.70279     2.34100     0.64835
H      1.47389     0.29325    -1.12846
H     -0.23145     0.75940    -1.08822
C     -3.50631    -0.66349    -0.55637
O     -2.71988     0.40395    -0.05526
H     -3.94616    -0.36166    -1.50617
H     -2.55497     0.25839     0.89781
H     -2.89429    -1.54945    -0.71244
H     -4.31563    -0.90478     0.13559
C     -2.25782     3.18497    -2.05769
O     -2.22251     2.98434    -0.65799
H     -1.35439     2.79428    -2.53422
H     -2.42277     2.04573    -0.46700
H     -3.12211     2.69828    -2.50998
H     -2.31948     4.25315    -2.25873
C     -2.04679    -3.05946     1.64064
O     -1.06548    -2.59085     0.72992
H     -2.74793    -2.26776     1.90096
H     -0.57377    -1.86532     1.16261
H     -2.59458    -3.86367     1.15350
H     -1.58723    -3.44305     2.55284
C     -1.99629     1.61693     2.97542
O     -2.09574     0.25038     2.56561
H     -1.11928     2.09735     2.53968
H     -1.23296    -0.16783     2.71768
H     -2.88570     2.14127     2.62845
H     -1.94808     1.69057     4.06251
C      1.75416    -1.37232     2.05923
O      0.47489    -0.74236     1.99450
H      2.35701    -0.90712     2.83936
H      0.62425     0.09605     1.49379
H      1.61755    -2.42461     2.30164
H      2.27414    -1.29378     1.10551
