 60
-1158.0942018536437
C     -1.22205    -3.11813    -2.10311
O     -0.47846    -2.23251    -1.27511
H     -1.28666    -4.10427    -1.64380
H     -1.11363    -1.89753    -0.57931
H     -2.22936    -2.73544    -2.26009
H     -0.71724    -3.21028    -3.06103
C     -0.23789     4.12250    -0.15166
O     -0.10492     2.76146     0.21696
H      0.61824     4.69625     0.19975
H      0.60960     2.37172    -0.36203
H     -0.30456     4.21788    -1.23470
H     -1.14446     4.53023     0.29367
C      2.81501    -1.17816    -0.31352
O      1.94265    -0.82910    -1.39448
H      3.11442    -2.22183    -0.37947
H      1.17305    -1.42057    -1.37432
H      3.70366    -0.55452    -0.39226
H      2.34597    -0.99629     0.65410
C     -0.09831    -0.23880    -4.10028
O     -0.86577     0.22712    -3.00072
H      0.93099    -0.46909    -3.81732
H     -0.79938    -0.41527    -2.28498
H     -0.54540    -1.12294    -4.55731
H     -0.08099     0.54731    -4.85490
C      1.01346    -3.78991     1.62437
O      1.19110    -4.01444     0.23953
H      0.75261    -2.75460     1.85318
H      0.57069    -3.45005    -0.22908
H      0.24333    -4.45167     2.03045
H      1.94896    -4.02176     2.13243
C      2.31413    -0.27396     4.01383
O      1.26998    -0.40106     3.07112
H      2.75975    -1.25619     4.17421
H      0.84910     0.47136     2.99056
H      3.09570     0.40323     3.65772
H      1.94443     0.09658     4.97383
C     -1.95605    -1.49955     1.81472
O     -2.10462    -1.23436     0.42123
H     -2.85275    -1.19282     2.35369
H     -2.28085    -0.26751     0.32693
H     -1.83660    -2.57321     1.95230
H     -1.08904    -0.99450     2.23575
C      1.67193     2.32775    -2.67985
O      1.68564     1.81026    -1.35579
H      0.68323     2.21733    -3.12159
H      1.78067     0.83076    -1.41402
H      1.93681     3.38430    -2.65162
H      2.40197     1.81390    -3.30569
C     -1.32983     2.03546     3.26671
O     -0.00100     1.96111     2.78683
H     -1.71126     3.05719     3.21146
H      0.00221     2.29944     1.87382
H     -1.99790     1.38486     2.70140
H     -1.33146     1.72517     4.31064
C     -3.15516     1.72117    -1.06347
O     -2.46172     1.37800     0.13182
H     -3.93801     0.98179    -1.22572
H     -1.63314     1.88987     0.15730
H     -3.62427     2.70305    -0.96933
H     -2.48947     1.71410    -1.92466
