 36
-694.8462787809318
C      0.33142     2.92810    -2.35854
O     -0.38854     2.54335    -1.19762
H     -0.37824     3.10105    -3.16363
H      0.22282     2.62471    -0.43087
H      0.88758     3.84879    -2.17945
H      1.03497     2.15077    -2.66548
C      2.44500     1.55256     0.52219
O      1.23342     2.20507     0.89123
H      2.25545     0.67679    -0.10008
H      0.74230     1.58014     1.46435
H      3.06122     2.25674    -0.03453
H      2.99841     1.23936     1.40789
C      1.21947    -2.11704    -2.42076
O      1.12887    -1.72303    -1.06665
H      1.38358    -1.25615    -3.07574
H      0.43884    -1.03960    -1.02520
H      2.06463    -2.79467    -2.52825
H      0.31283    -2.63388    -2.74858
C     -0.38803    -3.18491     2.11676
O     -0.79447    -2.90412     0.78772
H     -0.05350    -2.28215     2.63044
H     -0.01919    -2.71849     0.24152
H     -1.25164    -3.58509     2.64550
H      0.41095    -3.93066     2.15130
C     -2.23958    -0.44350    -1.10548
O     -0.92154    -0.01000    -0.78887
H     -2.39031    -1.41267    -0.63819
H     -0.81808     0.94867    -1.00250
H     -2.97870     0.25885    -0.71713
H     -2.36549    -0.53512    -2.18545
C     -1.44705     0.63115     2.65148
O     -0.22473     0.25746     2.02762
H     -1.92654     1.45949     2.12594
H     -0.44074    -0.21985     1.21203
H     -2.13748    -0.21129     2.68528
H     -1.22374     0.94167     3.66828
