 36
-694.843248948144
C      0.50719    -0.49330    -2.67601
O      0.73486     0.82228    -2.17894
H      1.42226    -0.83980    -3.15361
H     -0.07349     1.09769    -1.72473
H      0.23717    -1.17541    -1.86933
H     -0.28694    -0.48493    -3.42460
C      1.75404     2.30037     2.88992
O      1.02201     1.51365     1.96679
H      1.19840     2.33635     3.82651
H      1.59420     1.33985     1.19377
H      2.74056     1.87428     3.09460
H      1.88907     3.32388     2.52839
C      3.14530    -0.35667    -0.10628
O      2.55554     0.92919    -0.19996
H      3.86793    -0.34420     0.70730
H      1.99079     0.93611    -0.99915
H      2.40039    -1.12948     0.09432
H      3.67666    -0.60791    -1.02536
C     -3.05107    -2.31718    -1.95807
O     -2.83268    -1.75657    -0.67178
H     -3.39871    -3.33899    -1.81994
H     -2.60849    -0.82210    -0.77090
H     -3.80567    -1.75869    -2.51705
H     -2.12653    -2.34100    -2.54017
C     -1.93207     1.90579     0.44236
O     -1.46025     0.79557    -0.32418
H     -2.52698     1.56004     1.29061
H     -0.87588     0.25846     0.23337
H     -1.09809     2.50004     0.80989
H     -2.56007     2.51117    -0.20743
C     -0.23468    -1.68211     2.07657
O     -0.30262    -1.64545     0.65568
H      0.58447    -1.03833     2.38322
H     -1.13496    -2.04450     0.36074
H     -1.15830    -1.30615     2.52204
H     -0.04937    -2.69429     2.43848
