 36
-694.8541272554344
C     -2.66365     0.77228     1.17060
O     -3.14733     0.12942     0.00684
H     -3.20768     1.70884     1.28610
H     -2.50181    -0.52976    -0.26910
H     -2.84736     0.16750     2.06275
H     -1.59734     1.00232     1.11177
C      2.31925    -1.54428    -0.85433
O      1.21203    -1.93314    -0.04838
H      3.24516    -1.59301    -0.28175
H      1.33073    -1.49068     0.82322
H      2.39622    -2.22911    -1.69781
H      2.19134    -0.52646    -1.22676
C      0.55099    -0.58896     3.13111
O      1.56723    -0.46931     2.14970
H     -0.42909    -0.70976     2.66468
H      1.48182     0.42496     1.75149
H      0.75613    -1.46173     3.74632
H      0.52299     0.29298     3.77235
C     -1.06920     2.11952    -1.84646
O     -0.13969     1.11943    -1.44094
H     -0.66466     3.09358    -1.56924
H     -0.55491     0.24049    -1.51236
H     -1.20323     2.10464    -2.92998
H     -2.03201     1.98267    -1.35676
C     -1.42674    -2.48974    -2.16636
O     -1.07894    -1.47693    -1.23610
H     -1.43724    -3.46685    -1.68240
H     -0.25934    -1.76181    -0.76388
H     -2.42091    -2.27312    -2.54921
H     -0.72082    -2.51354    -2.99954
C      2.30641     2.52887     0.43855
O      1.15703     1.78370     0.79580
H      2.81204     2.85295     1.34676
H      0.68202     1.54690    -0.03014
H      2.99714     1.92180    -0.15244
H      2.03604     3.41273    -0.14197
