 42
-810.6617165833228
C     -1.74694    -0.52832    -2.85267
O     -1.84553     0.63585    -2.04926
H     -0.71242    -0.86215    -2.95793
H     -1.08335     1.21198    -2.21361
H     -2.31265    -1.32912    -2.37327
H     -2.16579    -0.36135    -3.84830
C      1.56427    -0.76497     3.63091
O      0.53635    -1.44622     2.92068
H      1.10122    -0.03753     4.29320
H      0.97211    -2.10524     2.33238
H      2.14637    -1.46526     4.22924
H      2.23515    -0.24227     2.94552
C      1.00246    -4.27510     0.88166
O      1.62688    -3.01188     1.04795
H      1.35957    -4.76778    -0.02326
H      1.40890    -2.46823     0.26003
H      1.25029    -4.89546     1.74032
H     -0.08465    -4.17411     0.81975
C      0.27293     3.68038    -2.73901
O      0.41936     2.38309    -2.19414
H      0.39145     3.61722    -3.81952
H      0.34801     2.46413    -1.22121
H     -0.71324     4.09673    -2.52047
H      1.03032     4.36135    -2.34323
C     -1.42665     3.15080     0.51653
O     -0.18986     2.46119     0.40351
H     -1.78190     3.15718     1.54891
H     -0.35047     1.56366     0.76343
H     -1.28621     4.18517     0.20395
H     -2.19208     2.69536    -0.11484
C      1.89693    -0.46814    -1.22617
O      0.80448    -1.31608    -0.85856
H      2.71262    -1.11260    -1.55011
H      0.09887    -0.77333    -0.47672
H      1.62554     0.18869    -2.04856
H      2.23678     0.12945    -0.37870
C     -2.11621    -0.49969     1.08191
O     -0.80473     0.03392     1.24276
H     -2.56691    -0.07056     0.19343
H     -0.33776    -0.49701     1.93763
H     -2.07921    -1.58399     0.96896
H     -2.72643    -0.26199     1.95234
