 42
-810.6687158550008
C      1.07747    -3.65395     0.98718
O      0.69642    -2.40264     0.43939
H      1.32316    -4.32655     0.16835
H      0.63981    -1.74797     1.18324
H      1.95113    -3.53523     1.62818
H      0.26011    -4.08000     1.57211
C     -1.06042    -0.27900     2.25458
O      0.32585    -0.60889     2.30613
H     -1.23842     0.58056     1.60932
H      0.80789     0.23733     2.16456
H     -1.61646    -1.12937     1.85793
H     -1.43247    -0.05552     3.25499
C     -1.04086    -2.13014    -2.66592
O     -1.26283    -1.65830    -1.34186
H     -1.68778    -1.56625    -3.33883
H     -0.57225    -2.01758    -0.75456
H     -0.00333    -1.98490    -2.96138
H     -1.30108    -3.18700    -2.74642
C      1.79709    -0.00459    -1.74498
O      2.22768    -1.35156    -1.71127
H      2.40993     0.52300    -2.47549
H      1.82553    -1.76523    -0.93986
H      0.75494     0.07798    -2.06304
H      1.90397     0.50542    -0.78480
C     -3.28310     0.89656    -0.72780
O     -1.93278     0.88478    -1.15564
H     -3.56391     1.91275    -0.45349
H     -1.67338    -0.06012    -1.23450
H     -3.94155     0.55358    -1.52727
H     -3.42419     0.24648     0.13886
C      1.35214     2.68130     2.83102
O      1.34648     1.77513     1.74344
H      1.90183     2.23068     3.65599
H      0.78314     2.16265     1.04017
H      1.84453     3.61700     2.55849
H      0.33613     2.90539     3.16530
C      0.32828     3.41584    -1.21955
O     -0.27724     2.68433    -0.16733
H      0.76264     2.74538    -1.96365
H     -0.90164     2.03980    -0.56888
H     -0.39829     4.06538    -1.71125
H      1.12379     4.03560    -0.80508
