 36
-694.8525906569535
C      0.35821     3.24062     1.30304
O      0.02531     1.88220     1.08282
H     -0.43859     3.69550     1.88525
H      0.75755     1.46745     0.57487
H      1.29550     3.32446     1.85651
H      0.45983     3.77445     0.35629
C      3.20940     0.36930    -0.00836
O      1.87034     0.62292    -0.39073
H      3.25602    -0.36836     0.79538
H      1.50377    -0.20776    -0.77139
H      3.79497    -0.00075    -0.85165
H      3.65620     1.29893     0.34178
C      1.14452    -2.34587    -2.46210
O      0.78549    -1.60541    -1.30815
H      2.23055    -2.40918    -2.51753
H     -0.19981    -1.61679    -1.24140
H      0.74037    -3.35838    -2.40956
H      0.77010    -1.86448    -3.36805
C      0.65849    -1.08874     2.64327
O     -0.47845    -0.30412     2.94012
H      0.72193    -1.33984     1.58201
H     -0.40872     0.51331     2.43821
H      1.58447    -0.58360     2.93363
H      0.59312    -2.01793     3.21090
C     -2.31384    -2.07555     0.16666
O     -1.84559    -1.49131    -1.04495
H     -2.03332    -3.12779     0.16763
H     -2.06640    -0.53662    -1.00094
H     -1.87805    -1.58674     1.03869
H     -3.40039    -2.00867     0.22569
C     -1.40213     1.76118    -1.86217
O     -2.04753     1.16519    -0.74191
H     -1.69147     2.80862    -1.95893
H     -1.54817     1.41836     0.04843
H     -0.31678     1.69603    -1.77227
H     -1.72049     1.23158    -2.75924
