 54
-1042.2816613293153
C      2.70436    -2.06688     3.08996
O      1.83375    -1.70165     2.03463
H      2.45809    -1.52426     4.00677
H      0.99643    -2.19767     2.17418
H      2.64371    -3.13653     3.29333
H      3.72622    -1.82858     2.80032
C     -0.14263     3.49245    -1.22039
O      0.57718     2.91700    -2.30852
H      0.08063     4.55660    -1.20697
H      0.32306     1.98835    -2.36010
H     -1.21603     3.35316    -1.34231
H      0.16167     3.05444    -0.26870
C     -2.26223    -1.31545    -2.66562
O     -1.94396    -1.02171    -1.31585
H     -3.24906    -1.77342    -2.70446
H     -1.07592    -0.55106    -1.31482
H     -2.27563    -0.40289    -3.26293
H     -1.53759    -2.00896    -3.09578
C      1.47321    -0.64449    -1.66358
O      0.38249     0.21218    -1.29907
H      1.82225    -1.20277    -0.79605
H      0.60235     0.56810    -0.40789
H      1.12045    -1.34856    -2.41698
H      2.29132    -0.05685    -2.07609
C      2.18055     1.79056     1.47174
O      1.19610     0.80060     1.19036
H      2.69075     2.09580     0.55883
H      1.50418    -0.06084     1.54153
H      1.68861     2.65643     1.91442
H      2.91529     1.41636     2.18419
C     -2.52167     1.46095     1.12563
O     -2.94379     1.54770    -0.22157
H     -1.44345     1.30345     1.20834
H     -2.88864     0.66597    -0.60135
H     -2.77783     2.39262     1.63000
H     -3.03285     0.64854     1.65312
C     -3.52257    -3.05856     0.77858
O     -2.14956    -3.02915     0.42709
H     -3.62569    -3.46820     1.78311
H     -2.05470    -2.31830    -0.23553
H     -3.94448    -2.04963     0.76543
H     -4.08779    -3.68482     0.08537
C     -1.16064    -1.62122     3.18744
O     -0.55480    -2.72566     2.52968
H     -2.22321    -1.55575     2.95225
H     -1.11367    -2.94000     1.74943
H     -1.04061    -1.74106     4.26338
H     -0.68356    -0.68275     2.89389
C      4.01139     3.04430    -3.05933
O      3.31428     2.59893    -1.91427
H      3.72972     2.47579    -3.95151
H      2.37173     2.78929    -2.04355
H      3.83058     4.10475    -3.25778
H      5.07803     2.90397    -2.88561
