 36
-694.8466765553551
C      2.12960     2.66406     1.26524
O      1.04242     3.54696     1.00927
H      1.70705     1.69726     1.52844
H      1.39799     4.36594     0.66437
H      2.76028     2.52984     0.38218
H      2.74204     3.01673     2.09615
C      0.79014     1.28410    -1.98442
O      0.35775    -0.04863    -2.21828
H      0.25778     1.94344    -2.66833
H      0.90406    -0.64255    -1.65797
H      0.59711     1.60810    -0.95886
H      1.85906     1.37784    -2.18230
C      1.55140    -2.95717    -0.66319
O      1.78211    -1.56781    -0.53247
H      1.92387    -3.28636    -1.63187
H      1.46272    -1.30142     0.35632
H      2.07275    -3.51834     0.11413
H      0.48393    -3.18965    -0.60181
C      0.45401    -1.71147     2.84188
O      0.61098    -0.83123     1.74627
H     -0.15929    -2.57454     2.57134
H     -0.28232    -0.51116     1.48110
H      1.43738    -2.06035     3.15416
H     -0.01591    -1.20416     3.68705
C     -2.65814    -1.52640    -2.03376
O     -2.24186    -0.22605    -1.65154
H     -2.13148    -2.29080    -1.45511
H     -1.32581    -0.11310    -1.99045
H     -3.72681    -1.62109    -1.85426
H     -2.46357    -1.70312    -3.09282
C     -2.02707     1.40762     1.36205
O     -1.74040     0.07898     0.95086
H     -3.09811     1.60508     1.31203
H     -2.01093    -0.01429     0.00926
H     -1.70359     1.52850     2.39596
H     -1.49843     2.13768     0.74585
