 36
-694.8524560075181
C      0.97033     3.64742    -1.67277
O     -0.23750     3.25771    -1.05032
H      1.75459     2.89973    -1.52242
H     -0.51833     2.42515    -1.45095
H      0.84386     3.80388    -2.74784
H      1.29728     4.58527    -1.22388
C      2.70991    -2.68079     1.26135
O      1.59088    -2.32525     0.46863
H      3.05930    -1.83429     1.85572
H      1.76377    -1.44674     0.07500
H      2.42068    -3.48490     1.93631
H      3.53165    -3.03421     0.63740
C      1.36281     0.96713     0.80230
O      1.64545     0.23768    -0.38966
H      0.43069     0.64282     1.26544
H      0.95456     0.43320    -1.03934
H      2.17738     0.79212     1.50350
H      1.30612     2.03404     0.60504
C     -0.88888    -0.35474    -2.98799
O     -0.78387     0.62400    -1.96612
H     -0.38395    -1.27640    -2.69076
H     -1.39270     0.33449    -1.24178
H     -1.93472    -0.58205    -3.19588
H     -0.42512     0.03526    -3.89040
C     -0.78595    -1.89408     2.81323
O     -0.85809    -2.00543     1.40579
H     -1.72241    -1.47938     3.18623
H      0.04134    -2.21527     1.06908
H     -0.63876    -2.87209     3.27482
H      0.03009    -1.23671     3.12492
C     -2.61121     0.86184     0.94821
O     -2.23231    -0.16977     0.05122
H     -1.73830     1.29817     1.43991
H     -1.76938    -0.87423     0.55779
H     -3.12243     1.64757     0.39530
H     -3.29304     0.48512     1.71143
