 60
-1158.0949788808427
C     -0.31077    -3.41151    -3.87753
O     -0.05818    -2.44267    -2.87935
H     -0.35457    -2.96544    -4.87418
H     -0.68293    -1.70752    -3.01876
H      0.49811    -4.14132    -3.86409
H     -1.25345    -3.93736    -3.69626
C     -0.00799     2.85626    -1.90610
O     -0.29619     1.47354    -2.01276
H      0.13230     3.15988    -0.86847
H      0.37619     0.97211    -1.51239
H      0.89254     3.11312    -2.46465
H     -0.84654     3.40866    -2.32216
C      3.88745     2.89616    -0.20696
O      2.56734     2.62127     0.23012
H      4.44392     3.35763     0.60855
H      2.27443     1.79453    -0.19765
H      4.40169     1.98085    -0.50924
H      3.87615     3.58758    -1.05095
C     -2.46530     1.69449     0.46519
O     -1.94640     0.42605     0.82946
H     -3.50635     1.77980     0.78067
H     -1.19079     0.54703     1.42938
H     -1.89951     2.50160     0.93398
H     -2.40975     1.82377    -0.61476
C      3.24525     0.86029     2.83520
O      2.16006     1.78171     2.74043
H      4.09317     1.20445     2.24481
H      2.28201     2.26920     1.89992
H      3.54651     0.77925     3.87860
H      2.94489    -0.12688     2.47834
C     -3.77529    -2.62037     1.27878
O     -3.04613    -1.79698     2.16131
H     -3.25218    -2.76105     0.32689
H     -2.75222    -1.01775     1.67025
H     -3.90654    -3.59734     1.74425
H     -4.76498    -2.20702     1.06312
C     -3.02633    -0.53296    -2.46993
O     -1.81618    -0.38441    -3.18547
H     -3.49174    -1.47076    -2.77046
H     -1.33883     0.37824    -2.80565
H     -2.86193    -0.55179    -1.38931
H     -3.71434     0.28045    -2.71199
C      2.48341    -0.49453    -1.78141
O      1.76268     0.19148    -0.76181
H      2.04483    -1.46915    -1.97364
H      1.49795    -0.47442    -0.07341
H      2.44388     0.09602    -2.69619
H      3.52647    -0.61034    -1.48362
C     -0.11871    -2.31736     0.40046
O      0.92645    -1.53273     0.99109
H      0.32840    -3.01553    -0.30078
H      0.53876    -1.03991     1.73683
H     -0.67013    -2.86038     1.16495
H     -0.81025    -1.68786    -0.15461
C     -0.31968    -0.11949     4.05316
O     -0.02468     0.35537     2.74628
H     -0.50613     0.71501     4.72732
H      0.75362     0.96776     2.78737
H     -1.20908    -0.74376     3.99679
H      0.50903    -0.71040     4.44649
