 36
-694.8518169371912
C      0.80769     1.82403    -1.29689
O      0.34748     2.03846     0.03969
H      0.60887     2.70478    -1.90897
H     -0.61572     1.85600     0.02313
H      1.88161     1.65026    -1.28339
H      0.31590     0.96027    -1.74605
C      2.23937     0.70606     2.68490
O      1.76295     0.30657     1.41137
H      3.17762     1.25235     2.58901
H      1.29649     1.07060     0.98828
H      1.50555     1.33840     3.18671
H      2.40868    -0.18518     3.28504
C      2.30122    -1.84048    -1.39202
O      3.07648    -0.73807    -0.95803
H      1.27584    -1.54398    -1.62640
H      2.75435    -0.46981    -0.09155
H      2.75607    -2.24099    -2.29785
H      2.26832    -2.63798    -0.64425
C     -2.30717    -2.35035    -1.52694
O     -1.54813    -1.19376    -1.22193
H     -1.66863    -3.23525    -1.56991
H     -1.04287    -1.37215    -0.40164
H     -3.08967    -2.52207    -0.78238
H     -2.77071    -2.21089    -2.50198
C     -1.27092    -0.80865     2.11942
O     -0.35614    -1.36359     1.18123
H     -1.38113     0.26625     1.97305
H      0.48535    -0.87638     1.26953
H     -2.24436    -1.27708     1.98011
H     -0.94186    -0.99677     3.14239
C     -2.98617     2.18672    -1.10769
O     -2.19472     1.32086    -0.30904
H     -4.04528     1.94146    -1.01413
H     -2.13960     0.44132    -0.73210
H     -2.83721     3.20736    -0.75793
H     -2.69734     2.12927    -2.15945
