 24
-463.2289739576541
C      1.49198     1.45496     2.21071
O      0.37513     1.41322     1.34022
H      2.26761     0.75578     1.88973
H      0.70889     1.43572     0.41874
H      1.91542     2.45988     2.24948
H      1.16014     1.17983     3.21037
C      0.44557     2.15195    -2.06951
O      0.99117     1.11238    -1.27086
H      0.55120     1.92328    -3.13067
H      0.52679     0.28498    -1.50377
H     -0.61284     2.30753    -1.84662
H      0.99181     3.06887    -1.85510
C     -0.71895    -1.73728     1.94590
O     -1.18645    -0.74087     1.05641
H     -1.24196    -2.66722     1.73118
H     -0.71501     0.09020     1.27929
H      0.35553    -1.90291     1.83167
H     -0.92237    -1.46323     2.98208
C     -0.41965    -2.47696    -1.85641
O     -0.56089    -1.10519    -1.53342
H     -0.24961    -2.56310    -2.92742
H     -0.91836    -1.04839    -0.62253
H      0.42629    -2.92241    -1.32677
H     -1.32423    -3.03475    -1.60274
