 60
-1158.0921749092527
C      1.78245     2.69582     0.68642
O      0.38167     2.69489     0.46835
H      2.24635     3.60279     0.29382
H      0.19488     2.58356    -0.46895
H      1.96402     2.65995     1.75971
H      2.27228     1.83675     0.22812
C      2.89438     1.88099    -3.72769
O      2.24967     1.87196    -2.46037
H      3.95638     1.71314    -3.56490
H      1.30855     2.10044    -2.57690
H      2.50634     1.09018    -4.37432
H      2.76463     2.84183    -4.22699
C      1.70473    -0.85933     2.14006
O      0.76460    -0.56246     1.11346
H      2.12174    -1.85423     2.00106
H      1.24994    -0.43556     0.27292
H      2.51403    -0.12707     2.14490
H      1.19200    -0.81752     3.10092
C      1.30463    -1.11992    -2.35063
O      2.02767    -0.47024    -1.29699
H      0.56108    -0.45028    -2.77523
H      2.25062     0.42995    -1.62959
H      1.99436    -1.42881    -3.13537
H      0.80366    -1.99869    -1.96041
C      2.61259    -3.60798    -0.11497
O      3.55986    -2.56063    -0.06939
H      2.49539    -4.00829    -1.12484
H      3.17942    -1.80870    -0.53775
H      2.96438    -4.41319     0.52710
H      1.62979    -3.29485     0.24583
C     -1.72048    -3.33687     0.43503
O     -1.06425    -2.24217    -0.20369
H     -1.92026    -4.09349    -0.32106
H     -0.54031    -1.75484     0.45284
H     -1.08089    -3.77436     1.20601
H     -2.65437    -3.01203     0.88877
C     -4.16099    -0.91395     3.73294
O     -3.25699    -1.37636     2.75246
H     -3.70372    -0.88761     4.72645
H     -2.52879    -0.73918     2.70462
H     -4.53012     0.08958     3.50028
H     -5.01380    -1.59124     3.76466
C     -2.71090     0.54574    -0.37919
O     -1.84245     0.08369    -1.41867
H     -2.25293     1.35918     0.18147
H     -1.57955    -0.82752    -1.19566
H     -3.63329     0.91275    -0.82892
H     -2.94959    -0.25666     0.31226
C     -1.35853     1.87228     3.12563
O     -1.31944     0.55255     2.60257
H     -2.31109     2.00426     3.63689
H     -0.57071     0.45777     1.99045
H     -0.55565     2.02576     3.85137
H     -1.27116     2.61360     2.33265
C     -1.43902     3.08748    -2.79012
O     -0.46453     2.14095    -2.37575
H     -2.29144     3.07869    -2.11144
H     -0.94803     1.33547    -2.08144
H     -0.98841     4.07807    -2.77947
H     -1.78718     2.85675    -3.79726
