 60
-1158.0887090827696
C      2.51654     2.20865     2.67438
O      1.65888     1.94074     1.58380
H      2.15279     3.04959     3.26702
H      0.74892     1.83662     1.95052
H      2.59953     1.33721     3.32645
H      3.50713     2.45188     2.29134
C      2.64603    -1.03530     0.70076
O      1.26393    -1.21226     0.40685
H      2.88103     0.02003     0.81154
H      1.08068    -0.98541    -0.51707
H      2.85603    -1.55123     1.63665
H      3.26787    -1.47776    -0.07948
C      1.97117     4.87236     0.17383
O      1.20280     3.79251    -0.32349
H      2.98865     4.83872    -0.22368
H      1.41546     3.01714     0.23046
H      1.50935     5.80925    -0.13909
H      2.02317     4.85144     1.26439
C     -2.92733    -2.22044    -0.94396
O     -1.73581    -2.99059    -0.81335
H     -3.66396    -2.52298    -0.19962
H     -1.42018    -2.90024     0.11722
H     -2.71920    -1.15546    -0.82072
H     -3.33700    -2.38944    -1.93694
C      1.02504    -4.79657    -1.08557
O      0.00957    -4.81984    -2.06543
H      1.10846    -3.82885    -0.58573
H     -0.76589    -4.39346    -1.68320
H      0.85945    -5.56454    -0.32489
H      1.97626    -5.00711    -1.57495
C     -0.19488    -3.47218     2.53055
O     -0.69592    -2.55892     1.56888
H      0.26288    -2.94311     3.36895
H      0.05613    -2.00992     1.25995
H     -1.02319    -4.06877     2.90637
H      0.55204    -4.13922     2.09200
C     -1.66519     0.88125     2.02309
O     -0.84344     1.96782     2.43067
H     -1.57985     0.68506     0.95242
H     -1.16183     2.76747     1.96177
H     -1.36169    -0.01095     2.56634
H     -2.71107     1.07622     2.26453
C      0.75373    -1.83208    -3.41682
O      0.06323    -1.33590    -2.27224
H      0.06316    -1.97310    -4.24910
H     -0.53750    -2.02638    -1.94896
H      1.49666    -1.08738    -3.69598
H      1.24527    -2.77547    -3.18819
C     -0.65773     2.12166    -2.61303
O     -1.21123     1.10927    -1.79399
H      0.29775     2.46889    -2.22278
H     -0.75557     0.28448    -1.99949
H     -0.51651     1.78159    -3.64327
H     -1.34447     2.96867    -2.63326
C     -2.58498     3.73882    -0.00404
O     -1.44527     4.02135     0.79552
H     -2.45518     2.81539    -0.56632
H     -0.65556     4.03847     0.23117
H     -3.44462     3.63879     0.65788
H     -2.78859     4.55883    -0.69726
