 36
-694.8483569905961
C      0.23353    -0.31565    -3.71634
O      0.39837     0.38014    -2.49164
H     -0.43525     0.23103    -4.38101
H     -0.50193     0.49707    -2.09994
H      1.20329    -0.40848    -4.20182
H     -0.17723    -1.31524    -3.55122
C      1.77885    -0.20926     2.75656
O      1.71771     0.76490     1.73063
H      0.85881    -0.79617     2.80750
H      1.80681     0.29149     0.88584
H      2.61950    -0.89139     2.60883
H      1.91661     0.30365     3.70658
C      2.84843    -1.40361    -0.99655
O      1.72312    -0.67426    -0.54104
H      2.53155    -2.26975    -1.57949
H      1.29511    -0.23717    -1.32703
H      3.49404    -0.77795    -1.61346
H      3.41364    -1.74991    -0.13288
C     -2.45980     1.75773    -0.94346
O     -1.90280     0.46927    -1.21336
H     -3.54852     1.70687    -0.98421
H     -1.77957    -0.01291    -0.38336
H     -2.12221     2.10609     0.03065
H     -2.11737     2.44421    -1.71656
C     -1.33872    -2.75654     0.45605
O     -0.84404    -1.45274     0.74704
H     -1.44721    -2.90785    -0.62254
H      0.06066    -1.36203     0.41063
H     -0.68562    -3.53427     0.86107
H     -2.31814    -2.85062     0.92217
C     -1.42807     1.31741     2.65561
O     -0.73463     1.99585     1.63298
H     -1.70580     0.31143     2.33791
H      0.18208     1.67719     1.63922
H     -0.83693     1.23918     3.57283
H     -2.33434     1.87643     2.88906
