 60
-1158.093178936878
C      2.05351    -2.06332     1.62871
O      1.66318    -0.69960     1.47559
H      2.68223    -2.16419     2.51386
H      0.68532    -0.65035     1.64561
H      1.17385    -2.69262     1.72724
H      2.61831    -2.38387     0.75343
C      3.45116     0.54517    -1.25502
O      2.24496    -0.19201    -1.12356
H      4.21384     0.18199    -0.56314
H      2.00768    -0.23341    -0.17957
H      3.81599     0.41231    -2.27244
H      3.28832     1.60730    -1.07625
C      1.50566     2.11164     3.19030
O      2.49937     1.83640     2.20257
H      0.65471     1.44019     3.07450
H      2.42908     0.88850     1.99797
H      1.92112     2.00217     4.19265
H      1.16328     3.13893     3.06293
C     -3.62594    -1.96779    -0.80609
O     -4.60187    -1.45822     0.10221
H     -2.98915    -2.71267    -0.33655
H     -5.17521    -2.17403     0.37694
H     -4.09796    -2.39978    -1.69290
H     -3.00638    -1.13312    -1.11417
C     -0.41299    -1.32013    -2.81130
O      0.57794    -2.05493    -2.11253
H     -0.00479    -0.90760    -3.73712
H      1.26698    -1.41857    -1.84554
H     -1.23656    -1.98291    -3.08054
H     -0.80997    -0.50333    -2.20846
C     -0.81423    -4.75187    -0.70974
O     -0.57261    -3.48542    -0.13312
H      0.01622    -5.07818    -1.34112
H     -0.11697    -2.94166    -0.80152
H     -0.94494    -5.48354     0.08820
H     -1.72187    -4.74828    -1.32314
C     -1.77910    -1.52066     2.28405
O     -0.89102    -0.50571     1.83015
H     -1.45825    -2.49420     1.91759
H     -1.32255    -0.03835     1.08053
H     -1.77591    -1.52641     3.37427
H     -2.79388    -1.33342     1.93741
C      0.35048     2.12859    -2.63885
O     -0.10570     2.40438    -1.32722
H      1.07522     1.31562    -2.64177
H      0.65014     2.76352    -0.81562
H     -0.50699     1.85453    -3.25631
H      0.80282     3.01680    -3.08401
C      1.78939     4.73441     0.55563
O      1.91281     3.40003     0.09917
H      0.78404     4.92935     0.94006
H      2.20583     2.84694     0.85417
H      2.51030     4.94510     1.34644
H      1.98150     5.40913    -0.27639
C     -3.15504     1.50486    -0.17837
O     -1.89450     0.85492    -0.19124
H     -3.51610     1.65723    -1.19860
H     -1.24779     1.45189    -0.62959
H     -3.87308     0.87936     0.34662
H     -3.09386     2.47521     0.31878
