 42
-810.6633252104316
C     -1.86423     0.18272     2.48836
O     -0.94584    -0.85130     2.15357
H     -2.79710    -0.27908     2.80569
H     -0.06240    -0.44323     2.07781
H     -1.48395     0.78477     3.31510
H     -2.05551     0.83713     1.63525
C      0.21062     3.11141    -0.26891
O      1.02091     1.95575    -0.44948
H     -0.77772     2.84719     0.10718
H      0.57737     1.36601    -1.09519
H      0.70179     3.76887     0.44837
H      0.09581     3.65106    -1.20989
C     -0.61839    -3.10498    -0.38942
O     -1.09888    -1.76626    -0.33445
H      0.46404    -3.13181    -0.26999
H     -1.13505    -1.48431     0.61066
H     -1.08131    -3.71230     0.38848
H     -0.87923    -3.52657    -1.35837
C      2.31083     0.89595     2.57173
O      1.39442     0.36953     1.63132
H      1.93271     1.82383     3.00512
H      1.27945     1.01998     0.89516
H      2.44871     0.16445     3.36472
H      3.27462     1.09303     2.10090
C      0.46429    -0.44250    -3.01913
O     -0.24724     0.09560    -1.91711
H      0.82250     0.37936    -3.63725
H     -0.51273    -0.66263    -1.33485
H      1.30974    -1.03264    -2.67092
H     -0.18765    -1.06968    -3.62800
C      3.44294    -0.73308    -0.87039
O      2.42109    -1.58261    -0.37631
H      3.06085     0.25437    -1.14112
H      2.03327    -1.16909     0.40283
H      4.24771    -0.60639    -0.14201
H      3.86710    -1.19456    -1.76271
C     -3.73810     0.55709    -0.72863
O     -2.63896     1.44537    -0.85483
H     -4.41164     0.95899     0.02910
H     -1.93404     1.00403    -1.34305
H     -4.28972     0.47285    -1.66842
H     -3.41918    -0.43806    -0.41362
