 54
-1042.2846770136227
C      4.82220    -1.16616     0.50054
O      3.73168    -0.36106     0.08484
H      5.59679    -0.51505     0.90101
H      3.04077    -0.96093    -0.25602
H      4.51400    -1.86438     1.28380
H      5.23491    -1.73497    -0.33622
C      1.50604    -1.55162    -2.23081
O      1.80746    -1.97583    -0.90506
H      1.60356    -2.38175    -2.93004
H      0.98569    -2.34398    -0.53870
H      0.49305    -1.14864    -2.29673
H      2.20832    -0.77058    -2.51631
C     -2.84284    -0.89842    -2.58752
O     -2.17698    -0.92136    -1.33114
H     -3.39389    -1.82810    -2.74245
H     -2.62342    -0.26517    -0.73999
H     -3.53814    -0.06295    -2.63067
H     -2.10651    -0.78565    -3.38398
C      3.34129     2.03762    -2.33749
O      3.91146     2.19522    -1.06133
H      2.27228     1.80534    -2.27488
H      3.88634     1.33253    -0.62767
H      3.45248     2.97321    -2.88390
H      3.83445     1.24697    -2.91317
C     -1.50519    -3.87105     0.12437
O     -0.73057    -2.72314    -0.17809
H     -0.87421    -4.58330     0.64874
H     -1.31480    -2.08917    -0.67108
H     -2.35264    -3.60549     0.75912
H     -1.87956    -4.32753    -0.79166
C     -3.68990     0.31259     1.51616
O     -3.53589     0.78013     0.18087
H     -4.50599     0.83609     2.01328
H     -3.20737     1.70458     0.23555
H     -3.93401    -0.74845     1.48575
H     -2.77566     0.44573     2.09353
C     -2.78647     3.99590     1.65362
O     -2.35621     3.14476     0.60457
H     -3.83272     4.24669     1.48573
H     -1.53716     2.69419     0.90554
H     -2.69074     3.50621     2.62572
H     -2.20439     4.91877     1.66467
C      0.97764    -1.22332     2.60545
O     -0.33835    -1.09981     2.07289
H      1.02317    -2.02303     3.34679
H     -0.44918    -1.76673     1.37858
H      1.71036    -1.41561     1.82165
H      1.24075    -0.28607     3.09268
C      0.47326     1.45365     0.08286
O     -0.38655     1.47111     1.21689
H      1.49188     1.71585     0.36543
H     -0.46775     0.55409     1.54314
H      0.48258     0.47615    -0.39865
H      0.12452     2.19007    -0.64273
