 36
-694.8459715200345
C     -0.35783     2.98022    -0.92687
O     -0.76034     1.91174    -1.77131
H     -1.19035     3.65720    -0.73536
H     -1.47201     1.42827    -1.29186
H      0.01818     2.61241     0.02969
H      0.43204     3.54018    -1.42798
C      2.34353     0.70932    -2.78573
O      1.26634     0.19493    -2.02290
H      2.46056     1.78419    -2.63073
H      0.51438     0.82367    -2.11031
H      3.26303     0.21142    -2.48143
H      2.18888     0.52498    -3.84976
C      0.68714    -3.12735     0.75699
O     -0.57456    -3.49975     1.30643
H      0.56980    -2.49579    -0.12458
H     -1.03677    -4.04172     0.66715
H      1.22323    -2.55167     1.50651
H      1.28259    -4.00559     0.49951
C      2.53084     0.82750     1.01946
O      1.40487     0.06723     0.62924
H      3.45683     0.35646     0.68580
H      1.35838     0.05905    -0.35300
H      2.49395     1.84259     0.61743
H      2.55222     0.88810     2.10632
C     -2.17493    -0.90333    -0.62908
O     -2.39865     0.45490    -0.25434
H     -1.91098    -1.50793     0.23699
H     -2.02447     0.56188     0.64261
H     -3.08167    -1.30125    -1.08384
H     -1.36664    -0.97060    -1.36184
C     -1.12156    -0.38473     3.00339
O     -0.90138     0.54973     1.96049
H     -2.16383    -0.31496     3.31348
H     -0.03687     0.35612     1.54820
H     -0.91560    -1.40398     2.67571
H     -0.49511    -0.15328     3.86824
