 36
-694.8457391542107
C     -4.09905     1.15301    -0.93913
O     -3.12202     0.21848    -1.37298
H     -5.03788     0.62408    -0.79065
H     -2.29016     0.71442    -1.52353
H     -3.80392     1.62307     0.00261
H     -4.24912     1.93153    -1.68742
C      4.45735     0.88113     2.36534
O      3.61199     1.17089     1.27080
H      4.70713     1.81908     2.85946
H      3.31152     0.32762     0.90521
H      3.96620     0.22813     3.09446
H      5.38738     0.40202     2.04533
C      2.38799    -1.30782    -1.08516
O      2.39791    -1.18853     0.32169
H      3.31816    -1.77414    -1.40391
H      1.49836    -0.92363     0.58576
H      1.55601    -1.92923    -1.43049
H      2.30909    -0.32816    -1.56344
C     -2.15455    -2.74808     0.12544
O     -2.28892    -1.40941     0.58876
H     -3.12865    -3.23131     0.05525
H     -2.72063    -0.88655    -0.12461
H     -1.66746    -2.77914    -0.85138
H     -1.54279    -3.29524     0.84003
C      0.02604     1.26734    -2.64874
O     -0.71958     1.39794    -1.44513
H      1.00764     1.73360    -2.55038
H     -0.23121     0.98108    -0.71928
H      0.15008     0.21790    -2.92914
H     -0.52065     1.77647    -3.43896
C     -0.06438     0.73081     1.97185
O     -0.00651    -0.19079     0.88990
H      0.86772     1.29043     2.00331
H     -0.86176    -0.69046     0.86359
H     -0.89334     1.42881     1.83998
H     -0.19908     0.20002     2.91364
