 60
-1158.08979002668
C      1.15539    -3.67794    -1.88716
O      0.13150    -2.78460    -1.46482
H      0.86972    -4.72366    -1.73845
H     -0.11318    -2.97178    -0.55060
H      1.30987    -3.51878    -2.95327
H      2.08930    -3.48608    -1.36276
C      1.80347     5.29729    -0.97466
O      1.44630     3.93755    -1.13056
H      1.27937     5.92779    -1.69546
H      0.48077     3.86944    -0.97580
H      1.57752     5.65710     0.03242
H      2.87318     5.39760    -1.14817
C      3.75076     2.58971     1.03580
O      2.39751     2.24440     0.81346
H      4.33185     2.57375     0.10753
H      2.07281     2.81463     0.09175
H      3.84432     3.58302     1.48222
H      4.18864     1.86398     1.72224
C      0.25608     0.62461    -1.57875
O     -0.81354     0.76800    -0.63328
H      0.14608    -0.29750    -2.14783
H     -0.56746     0.23209     0.15383
H      0.24323     1.47995    -2.25034
H      1.21180     0.61161    -1.06447
C     -1.14786    -4.51502     1.75818
O     -1.05501    -3.16404     1.32651
H     -1.39832    -4.56264     2.81795
H     -1.96537    -2.81988     1.15502
H     -1.90426    -5.04592     1.18083
H     -0.18067    -4.98462     1.59568
C      0.59324    -0.22408     2.51872
O      0.05666    -0.76492     1.31381
H      0.94843     0.78398     2.31460
H     -0.29240    -1.66449     1.48033
H     -0.17360    -0.19010     3.29453
H      1.43050    -0.82904     2.86526
C     -2.73908    -1.25473    -2.65938
O     -3.08452    -0.54286    -1.47579
H     -2.27697    -0.58957    -3.39111
H     -2.35429     0.06706    -1.27567
H     -2.04363    -2.06283    -2.43859
H     -3.64874    -1.66073    -3.09439
C     -3.55610    -0.84663     1.74884
O     -3.27781    -1.87639     0.80784
H     -2.67842    -0.22047     1.91758
H     -3.28317    -1.46003    -0.08583
H     -4.37093    -0.21400     1.39891
H     -3.85344    -1.30712     2.68924
C      3.55505    -1.03187    -0.38978
O      2.74430    -1.83477     0.44618
H      3.26102    -1.09015    -1.44362
H      1.85134    -1.47683     0.43385
H      3.52081     0.01351    -0.08082
H      4.58063    -1.38897    -0.30869
C     -1.10582     3.65209     1.07519
O     -1.07198     3.43317    -0.32838
H     -1.98647     3.18987     1.52510
H     -1.11855     2.46659    -0.45744
H     -0.21094     3.25069     1.55852
H     -1.15278     4.72479     1.25169
