 60
-1158.0868648191492
C      0.70039     3.11909    -2.18144
O      0.57487     1.99279    -3.02909
H     -0.15709     3.77135    -2.34928
H      1.23845     1.33212    -2.79030
H      0.71125     2.84012    -1.12709
H      1.60534     3.69233    -2.40668
C      3.27572    -0.60850    -3.49409
O      2.29106    -0.30644    -2.52470
H      3.61364    -1.64412    -3.40368
H      1.50177    -0.84358    -2.74343
H      2.89736    -0.45333    -4.50773
H      4.13082     0.04854    -3.33981
C      2.75899     1.77876     0.46899
O      1.57129     1.64780     1.23703
H      2.85161     2.81566     0.14424
H      1.25148     0.73413     1.10584
H      3.63304     1.54301     1.07894
H      2.74930     1.13424    -0.41239
C     -3.03504    -3.22811     0.43315
O     -3.06085    -1.82730     0.71081
H     -2.53533    -3.43217    -0.51485
H     -2.73484    -1.35600    -0.07285
H     -2.49612    -3.74082     1.23081
H     -4.05243    -3.61209     0.39221
C     -1.83065     0.08260     3.19069
O     -1.43544    -1.20374     2.68756
H     -2.03604     0.77775     2.37820
H     -2.13553    -1.50342     2.05623
H     -2.71719    -0.02566     3.81102
H     -1.02260     0.48316     3.79991
C      1.18663    -1.86465     0.49330
O      0.42960    -0.70399     0.84690
H      1.87185    -1.58494    -0.30176
H     -0.18021    -0.93927     1.58213
H      1.74768    -2.22803     1.34999
H      0.53483    -2.65745     0.13073
C     -2.12714     0.84354    -1.35661
O     -1.52398    -0.45096    -1.21209
H     -2.07731     1.39507    -0.41846
H     -0.77556    -0.38218    -0.59296
H     -1.62792     1.40611    -2.14129
H     -3.16976     0.69288    -1.63011
C     -0.48519    -0.99605    -4.45191
O     -0.02921    -1.47414    -3.19336
H      0.21568    -1.32164    -5.21943
H     -0.69103    -1.19656    -2.53187
H     -1.46823    -1.40673    -4.69269
H     -0.53839     0.09302    -4.46134
C     -0.82575     4.05201     2.03160
O     -0.87610     2.86067     1.26849
H     -0.04271     4.72636     1.67229
H      0.01805     2.47786     1.26591
H     -1.78417     4.56343     1.94346
H     -0.63808     3.84550     3.09012
C      1.65638    -1.06997     4.21815
O      0.96761    -2.25531     3.87455
H      2.67880    -1.33836     4.47452
H      0.06159    -2.01413     3.65403
H      1.68812    -0.35096     3.39696
H      1.20825    -0.58052     5.08649
