 24
-463.223729575299
C      1.95708     0.97106     1.57337
O      1.65141    -0.40296     1.32817
H      2.12724     1.08062     2.64314
H      1.53601    -0.52017     0.37957
H      2.86177     1.27338     1.04079
H      1.13195     1.61322     1.26629
C     -0.93555     2.42607    -2.02252
O     -0.17957     1.90831    -0.94123
H     -1.10058     3.48723    -1.83815
H     -0.04644     0.96312    -1.09167
H     -0.40798     2.31489    -2.97390
H     -1.90861     1.93155    -2.10399
C     -2.05904    -0.27445     1.47801
O     -1.09754    -1.30904     1.28531
H     -2.95015    -0.55442     0.92060
H     -0.27820    -1.05971     1.73745
H     -2.31976    -0.17769     2.53228
H     -1.69136     0.68375     1.10792
C      0.38801    -2.11181    -1.87795
O      0.06575    -0.94609    -1.13316
H      1.31879    -1.92931    -2.41012
H     -0.49738    -1.21107    -0.37961
H      0.51937    -2.96634    -1.21305
H     -0.39710    -2.33708    -2.60143
