 36
-694.8499503667456
C      3.32312     2.08716    -1.30376
O      2.68962     1.25145    -2.25104
H      4.24235     1.63200    -0.92667
H      2.28016     0.53056    -1.76378
H      3.58236     3.01948    -1.80337
H      2.67264     2.31592    -0.45755
C     -0.23195     2.70404    -1.28394
O      0.04249     2.15884     0.00262
H      0.68374     3.12363    -1.68726
H     -0.80452     1.88082     0.42118
H     -0.59353     1.94344    -1.97935
H     -0.97898     3.49583    -1.21793
C      1.77387    -0.41407     1.15056
O      1.19323    -0.18672    -0.13413
H      2.66117     0.20533     1.27803
H      0.77206     0.71241    -0.10553
H      1.05955    -0.19604     1.94266
H      2.06555    -1.46033     1.22361
C      0.15789    -3.35016    -1.17743
O     -0.40967    -2.28322    -0.43696
H     -0.64651    -3.97287    -1.56435
H      0.19420    -1.51457    -0.49533
H      0.73904    -2.97267    -2.02040
H      0.80769    -3.96412    -0.54901
C     -2.84762     0.46610    -0.11143
O     -2.08756     0.92871     0.99805
H     -2.41017    -0.43953    -0.53379
H     -1.81408     0.12927     1.49485
H     -3.87814     0.26549     0.18424
H     -2.85970     1.24418    -0.87342
C     -2.32473    -2.19362     2.68034
O     -1.34921    -1.43249     1.98582
H     -1.87637    -3.07725     3.13783
H     -1.05036    -1.92384     1.19557
H     -2.74413    -1.57102     3.46931
H     -3.12945    -2.50912     2.01209
