 48
-926.476386251845
C      1.18217     0.22551     1.73892
O      1.78352    -0.74266     0.87458
H      0.44079    -0.27671     2.35412
H      2.29716    -0.24706     0.19041
H      1.94422     0.66146     2.38220
H      0.69623     1.02036     1.17395
C     -3.25631     1.20465    -0.72182
O     -2.64457     1.58452     0.50719
H     -2.73205     0.35791    -1.16812
H     -2.43429     0.75246     0.97524
H     -4.29809     0.93085    -0.55973
H     -3.21859     2.04755    -1.41199
C     -0.05856     1.74130    -2.94366
O      0.91744     2.24055    -2.04139
H     -0.45133     0.78043    -2.60638
H      0.42327     2.63349    -1.28942
H     -0.88850     2.44169    -3.04039
H      0.39844     1.61581    -3.92381
C      2.75015    -0.51338    -2.24343
O      2.72022     0.48337    -1.23356
H      2.95548    -1.48045    -1.78353
H      2.10859     1.19128    -1.54477
H      1.79610    -0.57211    -2.76847
H      3.53743    -0.30143    -2.96708
C     -1.97133    -1.90735     2.29863
O     -1.97269    -0.86743     1.32810
H     -1.12596    -2.58002     2.15560
H     -1.49853    -1.18203     0.53714
H     -1.90253    -1.45439     3.28709
H     -2.90320    -2.47251     2.24620
C      1.94795    -3.87665     2.70611
O      1.22201    -3.38116     1.59457
H      2.99067    -4.08382     2.45084
H      1.52997    -2.48558     1.39253
H      1.92673    -3.17418     3.54487
H      1.47991    -4.80599     3.02916
C     -0.87498     4.50455     0.13885
O     -0.53673     3.14028    -0.02866
H     -1.35827     4.67154     1.10242
H     -1.31671     2.59889     0.22307
H      0.03836     5.09534     0.10175
H     -1.54789     4.84366    -0.65354
C     -0.37070    -2.76124    -1.29265
O     -0.37910    -1.40090    -0.87556
H     -1.34032    -2.98222    -1.73855
H      0.45652    -1.20703    -0.41985
H      0.40251    -2.93534    -2.04514
H     -0.19886    -3.43525    -0.45373
