 60
-1158.0940935902058
C      0.78186    -2.58380    -3.13335
O     -0.25986    -1.71540    -2.71937
H      0.45513    -3.61354    -2.99356
H      0.06725    -0.79876    -2.80490
H      1.01600    -2.43076    -4.18770
H      1.68833    -2.41918    -2.54504
C      3.35441     5.45272    -1.76676
O      2.09252     4.97923    -1.34095
H      4.08976     4.64497    -1.83477
H      2.22211     4.31662    -0.65099
H      3.23736     5.89293    -2.75729
H      3.74251     6.21977    -1.09074
C      2.17567     2.54936     1.84478
O      2.03228     2.77612     0.45344
H      3.01183     3.14555     2.20511
H      1.14962     2.46838     0.19270
H      1.27686     2.84550     2.39136
H      2.37889     1.49891     2.04619
C     -2.79385    -3.07359    -0.56880
O     -1.90060    -1.96733    -0.57967
H     -3.04817    -3.30666     0.46254
H     -1.37932    -1.96536    -1.40836
H     -3.70713    -2.84747    -1.12257
H     -2.32186    -3.95007    -1.01776
C      1.61604    -0.62248     0.24191
O      0.93772    -0.53580     1.49027
H      1.88352     0.36049    -0.13202
H      0.10878    -0.05444     1.37147
H      2.53363    -1.18297     0.41024
H      1.02776    -1.14243    -0.50861
C     -2.82053    -3.56844     4.10488
O     -2.58375    -2.64786     3.06313
H     -2.82275    -4.60161     3.73934
H     -1.64916    -2.71935     2.80027
H     -2.07072    -3.48998     4.89767
H     -3.79823    -3.35894     4.53872
C     -2.86569     0.45819     1.68658
O     -1.80036     0.26285     0.76115
H     -2.61370     0.02324     2.65167
H     -1.92003    -0.61336     0.31473
H     -3.03680     1.52868     1.79948
H     -3.77559    -0.00601     1.31081
C      1.52070     1.73187    -3.35694
O      0.66247     0.81912    -2.67694
H      2.49850     1.26795    -3.48606
H      0.29142     1.29269    -1.91505
H      1.11229     1.95377    -4.34324
H      1.63978     2.66048    -2.80003
C      0.31873    -3.84929     1.31461
O      0.02234    -2.92100     2.33416
H      1.39200    -4.03972     1.25385
H      0.45559    -2.07620     2.10883
H     -0.16988    -4.79406     1.54998
H     -0.03451    -3.50503     0.34291
C     -1.16687     3.22336    -0.91814
O     -0.43507     2.07190    -0.50546
H     -1.83634     3.55223    -0.12271
H     -1.05399     1.46507    -0.03753
H     -0.46447     4.02348    -1.14874
H     -1.76021     3.00394    -1.80825
