 60
-1158.0889636819202
C      3.61265    -1.26003     0.53014
O      3.22003     0.09779     0.34624
H      3.49713    -1.82278    -0.39685
H      2.25586     0.08939     0.17084
H      4.65957    -1.27083     0.82383
H      3.01980    -1.73322     1.31477
C      2.47512     2.71440    -1.74076
O      3.13918     1.55506    -2.20306
H      3.07062     3.25763    -1.00206
H      3.43796     1.06640    -1.42925
H      2.31138     3.37580    -2.59052
H      1.50429     2.48000    -1.29790
C      2.94841     2.54826     2.93392
O      3.13647     1.14689     2.85667
H      2.97136     3.00813     1.94293
H      3.34239     0.90706     1.93629
H      1.98199     2.76365     3.39592
H      3.73123     2.99839     3.54353
C     -4.23844     0.75197    -2.75353
O     -3.36340     1.36468    -1.81572
H     -5.25663     0.87668    -2.39092
H     -2.45417     1.25906    -2.12990
H     -4.15959     1.22505    -3.73417
H     -4.02706    -0.31434    -2.84749
C     -1.20865    -2.90089    -2.73137
O     -1.98913    -1.97185    -1.98606
H     -0.37131    -2.40321    -3.22498
H     -1.69565    -1.07768    -2.22199
H     -0.80578    -3.66612    -2.06564
H     -1.83014    -3.39145    -3.48261
C      0.59324    -0.52251     4.64813
O      1.40524    -0.91983     3.56182
H      0.70104    -1.21943     5.48197
H      2.05299    -0.22086     3.38269
H      0.84508     0.48071     5.00254
H     -0.45875    -0.51763     4.34422
C     -1.17454    -2.28870     1.74679
O     -0.62492    -2.17368     0.43097
H     -1.82132    -1.44201     1.97232
H     -1.34090    -2.16698    -0.23358
H     -1.74950    -3.21111     1.84117
H     -0.35183    -2.31552     2.45457
C     -4.19940    -0.92468     0.53525
O     -3.24015     0.10756     0.61139
H     -4.15432    -1.51424     1.45233
H     -3.32058     0.64417    -0.19428
H     -5.21776    -0.53625     0.44804
H     -4.00916    -1.59261    -0.30713
C      0.24554     0.51107    -3.48859
O     -0.69013     0.50472    -2.41073
H     -0.26031     0.13731    -4.37670
H     -0.19472     0.47094    -1.56690
H      0.59684     1.52107    -3.68781
H      1.10128    -0.12354    -3.26345
C      0.03340     0.97614     1.02844
O      0.51880     0.09866     0.00614
H      0.76061     1.76780     1.19346
H      0.14388    -0.81438     0.17089
H     -0.91152     1.42386     0.73379
H     -0.10970     0.43872     1.95830
