 42
-810.6653091213922
C     -3.78630    -0.80025     0.88334
O     -2.64130    -1.28288     0.20219
H     -3.57965     0.15792     1.36815
H     -2.00938    -1.61946     0.87212
H     -4.59280    -0.66098     0.16571
H     -4.11745    -1.50802     1.64386
C      1.10582    -1.79442    -0.74936
O      1.32627    -1.24499     0.55309
H      2.05221    -1.98729    -1.25157
H      1.79504    -0.39801     0.44946
H      0.57550    -2.73920    -0.63248
H      0.50488    -1.12875    -1.36593
C     -0.48218    -3.05115     2.86163
O     -0.77284    -1.97729     1.98443
H     -1.32535    -3.18319     3.53716
H      0.06659    -1.70683     1.55067
H     -0.32152    -3.97905     2.30725
H      0.40969    -2.83601     3.45249
C      1.83198     1.25423    -3.11188
O      2.75498     0.43151    -2.42567
H      1.92935     1.05558    -4.17910
H      2.81375     0.75473    -1.51918
H      0.80046     1.04497    -2.81593
H      2.02887     2.31782    -2.94733
C     -2.53839     1.05931    -2.29461
O     -1.54204     0.49278    -1.46754
H     -3.13770     1.79239    -1.74622
H     -1.95024    -0.21589    -0.92444
H     -2.05276     1.55922    -3.13062
H     -3.20362     0.29197    -2.69251
C      2.96088     1.72349     1.49546
O      2.39688     1.29364     0.26863
H      3.97543     1.34346     1.56029
H      1.49820     1.69644     0.18940
H      2.98802     2.81220     1.54856
H      2.38843     1.34523     2.34434
C     -0.75586     1.82938     1.40198
O     -0.11588     2.05487     0.15156
H     -1.74130     2.29778     1.41526
H     -0.60870     1.53648    -0.52131
H     -0.86503     0.76528     1.62042
H     -0.15788     2.28835     2.18831
