 60
-1158.0943205538824
C      3.69898    -0.26494    -0.06338
O      3.41939     0.98224    -0.68556
H      2.94554    -0.51596     0.68505
H      3.10603     1.60606     0.00870
H      3.69821    -1.04816    -0.82346
H      4.68215    -0.24749     0.41083
C      0.58679     0.17676     3.41630
O     -0.21918    -0.93783     3.06121
H      1.25977     0.45931     2.60596
H      0.32124    -1.53973     2.50891
H     -0.06439     1.02457     3.63127
H      1.17325    -0.03984     4.31072
C      1.05108     2.10116    -2.79869
O      1.16766     0.87164    -2.09091
H      0.11009     2.58371    -2.54637
H      2.05659     0.86889    -1.67083
H      1.86670     2.77499    -2.54138
H      1.07151     1.91655    -3.87429
C     -2.24869     0.76400    -1.62773
O     -1.90023     1.41871    -0.42087
H     -3.16507     1.19577    -2.02994
H     -2.09456     0.82046     0.33118
H     -1.45708     0.89659    -2.36152
H     -2.40305    -0.30238    -1.47920
C      0.20115    -2.24507    -2.20335
O      0.13713    -1.41287    -1.05551
H      0.94037    -1.87298    -2.91107
H      0.37853    -0.50325    -1.33025
H      0.49865    -3.25164    -1.90164
H     -0.76765    -2.29866    -2.70355
C     -2.88959    -1.48721     1.16521
O     -2.33553    -0.25579     1.59524
H     -3.12242    -2.12540     2.02001
H     -1.57492    -0.46952     2.18139
H     -3.81812    -1.29593     0.62573
H     -2.21186    -2.02626     0.50161
C     -3.00311    -4.07056    -1.39963
O     -3.42077    -2.80937    -1.90487
H     -3.43133    -4.28730    -0.41812
H     -4.37589    -2.80503    -1.96830
H     -3.24496    -4.88420    -2.08498
H     -1.92355    -4.02413    -1.28574
C      0.64705    -3.85307     1.24940
O      1.02003    -2.49170     1.24294
H      1.19884    -4.41530     0.49286
H      0.70354    -2.09732     0.40420
H      0.88050    -4.28038     2.22461
H     -0.42396    -3.97901     1.06355
C      2.88368     3.96443     0.99408
O      2.24702     2.69769     0.97653
H      2.74713     4.44471     1.96527
H      1.33771     2.84047     0.62596
H      3.95309     3.83428     0.82326
H      2.48272     4.61802     0.21702
C     -0.80511     4.17958     0.96917
O     -0.15672     3.31262     0.05435
H     -1.54579     4.79536     0.45634
H     -0.79613     2.59842    -0.18389
H     -1.30361     3.62021     1.76349
H     -0.06030     4.83440     1.42469
