 48
-926.4781967061097
C     -1.85142    -1.00067     3.34464
O     -0.44683    -0.92089     3.14740
H     -2.37588    -1.11767     2.39285
H     -0.25839    -0.01616     2.81868
H     -2.06339    -1.86499     3.97078
H     -2.23201    -0.10821     3.84279
C     -2.16892    -3.68089    -0.97668
O     -1.88121    -2.48383    -0.27971
H     -2.91516    -3.47352    -1.74258
H     -1.12596    -2.66495     0.32622
H     -1.27380    -4.08241    -1.45827
H     -2.56873    -4.43793    -0.30089
C     -0.57430    -0.56867    -2.56742
O     -1.66914    -0.25944    -1.70383
H      0.27396    -0.96227    -2.00778
H     -1.82978    -1.07141    -1.16997
H     -0.87823    -1.29477    -3.32096
H     -0.25716     0.33866    -3.07986
C      1.07710     3.47427    -2.42048
O      1.28835     2.54159    -1.37534
H      0.43236     3.05454    -3.19699
H      0.42580     2.38456    -0.95692
H      0.61457     4.39024    -2.04560
H      2.04021     3.72450    -2.85971
C     -2.38630     2.67595    -0.26541
O     -1.20840     1.88976    -0.34089
H     -2.34803     3.28311     0.63757
H     -1.43360     1.06932    -0.86442
H     -2.46070     3.33128    -1.13446
H     -3.26525     2.03517    -0.22608
C      1.47454    -2.57833     0.88203
O      0.16955    -2.82651     1.38325
H      1.51963    -1.65368     0.30328
H      0.01699    -2.18456     2.11234
H      2.19230    -2.50981     1.69969
H      1.75954    -3.40970     0.23974
C      1.35838     1.68181     1.84975
O     -0.03460     1.50435     2.08626
H      1.74052     0.93789     1.14844
H     -0.49941     1.65691     1.24546
H      1.57101     2.67547     1.45471
H      1.88105     1.56906     2.79802
C      4.07564     0.11993    -1.53279
O      2.68369     0.04555    -1.27971
H      4.55301     0.89635    -0.92773
H      2.30742     0.93120    -1.36917
H      4.52078    -0.84102    -1.27401
H      4.28044     0.32191    -2.58797
