 54
-1042.2764141540135
C      2.36955    -1.82798    -2.41336
O      1.02099    -1.39509    -2.40561
H      2.72242    -2.02026    -1.39966
H      0.93285    -0.68395    -1.74996
H      2.42513    -2.75177    -2.98253
H      3.02656    -1.08693    -2.87250
C      1.68149     1.73458     0.07252
O      1.04583     1.11897    -1.04144
H      1.47004     1.14456     0.95829
H      1.22558     1.65942    -1.84243
H      2.76225     1.77725    -0.07771
H      1.30306     2.74895     0.21762
C     -1.04243     0.26311    -4.52099
O      0.38153     0.19937    -4.52469
H     -1.46803    -0.72510    -4.69441
H      0.63798    -0.52403    -3.91868
H     -1.42370     0.64905    -3.57347
H     -1.35194     0.92114    -5.33061
C     -2.86166     0.25994     1.94710
O     -2.20849    -0.99807     2.06843
H     -3.59764     0.38993     2.74260
H     -2.20442    -1.23002     3.01954
H     -2.14060     1.08008     1.99555
H     -3.36300     0.29938     0.98411
C      0.64313    -2.39470     0.97631
O      0.40395    -1.09592     1.49877
H      0.09688    -3.15889     1.53203
H     -0.57378    -0.97659     1.55770
H      0.35175    -2.45536    -0.07075
H      1.70833    -2.60734     1.06482
C     -2.01299    -2.82986     5.07893
O     -1.81169    -1.48022     4.69402
H     -1.58842    -3.02201     6.06511
H     -0.84532    -1.32200     4.66445
H     -3.08378    -3.01671     5.11429
H     -1.55791    -3.51907     4.36255
C      2.56482     2.84461    -4.11476
O      1.43616     2.35645    -3.40864
H      2.95801     3.70647    -3.57946
H      1.04479     1.63523    -3.95509
H      3.34119     2.07905    -4.18586
H      2.28329     3.15324    -5.12289
C      1.26342     0.18887     4.58148
O      0.82085    -1.09363     4.16901
H      2.25667     0.40720     4.18544
H      0.80633    -1.10628     3.18829
H      0.57517     0.97430     4.25545
H      1.31610     0.19916     5.66837
C     -1.82227     2.71318    -1.56351
O     -1.87129     1.43449    -0.96151
H     -1.83325     3.50373    -0.80844
H     -0.96582     1.13842    -0.81978
H     -0.93321     2.83901    -2.18558
H     -2.70373     2.83687    -2.19400
