 42
-810.6625529606415
C      0.92241     0.17858    -3.02588
O     -0.37772    -0.33505    -2.74840
H      0.81896     1.05123    -3.66869
H     -0.25266    -1.27777    -2.48370
H      1.42661     0.47400    -2.10213
H      1.53532    -0.56298    -3.53627
C      1.81562    -1.45428     0.98895
O      0.70847    -2.32153     0.80274
H      2.70032    -1.93478     0.57397
H     -0.09075    -1.84948     1.10176
H      1.66694    -0.49767     0.48522
H      1.99076    -1.26496     2.04674
C     -1.19412    -3.44661    -1.56639
O      0.04820    -2.77275    -1.75223
H     -1.83720    -3.23756    -2.42154
H      0.44256    -2.68020    -0.85597
H     -1.04030    -4.52405    -1.49964
H     -1.68633    -3.09786    -0.65662
C     -2.50369     1.95162    -1.29252
O     -1.39804     1.18214    -0.85343
H     -2.21625     2.60358    -2.12017
H     -1.10692     0.60953    -1.60613
H     -3.31741     1.30387    -1.61837
H     -2.84985     2.56227    -0.46141
C     -1.77394    -0.56118     2.70513
O     -1.51645    -0.87539     1.33828
H     -1.85167    -1.50206     3.24871
H     -1.56755    -0.07641     0.79817
H     -0.96197     0.03134     3.12456
H     -2.71733    -0.02132     2.81542
C      2.44165     1.55238     3.17840
O      1.13554     1.28496     2.71457
H      2.69285     2.61485     3.10594
H      1.06124     1.63530     1.81357
H      2.50353     1.25581     4.22499
H      3.19353     0.98883     2.61690
C      0.93534     3.58412    -0.28808
O      0.86322     2.23784     0.13394
H      0.11360     4.17535     0.12324
H      0.02478     1.87768    -0.21228
H      1.87693     4.00462     0.06002
H      0.90727     3.65661    -1.37820
