 42
-810.669839428099
C     -4.03614     0.67338     0.57481
O     -2.66405     0.33469     0.61965
H     -4.62817    -0.23539     0.67587
H     -2.15940     1.12016     0.31379
H     -4.29765     1.35013     1.39124
H     -4.29040     1.15481    -0.37235
C      0.11031    -1.22509     2.79783
O      1.26857    -1.51135     2.02201
H     -0.35242    -2.14776     3.14839
H      0.98270    -2.10471     1.29211
H      0.41459    -0.64103     3.66409
H     -0.62649    -0.65662     2.22460
C      1.31651    -2.52479    -1.19331
O      0.39015    -2.80161    -0.15671
H      1.40191    -1.45260    -1.38753
H     -0.48542    -2.46287    -0.44458
H      2.29432    -2.90123    -0.89443
H      1.03546    -3.02630    -2.12051
C      1.92102     2.24444    -2.06995
O      1.09833     1.35971    -1.33925
H      2.74948     1.71099    -2.54021
H      1.60779     1.04950    -0.56033
H      1.32416     2.70712    -2.85475
H      2.32982     3.03263    -1.43311
C     -1.84056    -0.94031    -2.17332
O     -1.90365    -1.66639    -0.95296
H     -2.69092    -0.26521    -2.26078
H     -2.23013    -1.02682    -0.28531
H     -0.92360    -0.35096    -2.24385
H     -1.87135    -1.64437    -3.00352
C      3.77535     0.11995     0.58267
O      2.44246     0.53315     0.82587
H      4.20661    -0.34964     1.46654
H      2.01306    -0.18976     1.34378
H      3.81996    -0.59544    -0.24358
H      4.37676     0.99140     0.32673
C     -0.56694     3.05802     0.83588
O     -1.14292     2.35128    -0.25500
H      0.35807     2.58129     1.16167
H     -0.38980     2.00474    -0.77761
H     -0.35699     4.09068     0.55223
H     -1.27335     3.06471     1.66680
