 30
-579.0357264304829
C      3.07179     1.51932    -2.08081
O      2.64676     0.27805    -1.55961
H      3.58955     2.12338    -1.33008
H      2.13517     0.45476    -0.76247
H      3.76316     1.32342    -2.89841
H      2.23149     2.10097    -2.47191
C     -2.30144    -2.65911    -0.09538
O     -2.31047    -1.29523     0.29569
H     -2.88950    -2.75905    -1.00569
H     -1.73607    -1.20691     1.08082
H     -1.28275    -3.00093    -0.28953
H     -2.74296    -3.29111     0.67565
C     -0.25501    -0.50148     3.55171
O     -0.40837    -0.83099     2.18112
H     -0.86582     0.36367     3.82078
H      0.11658    -0.20104     1.65447
H     -0.57238    -1.35488     4.14638
H      0.78884    -0.28269     3.78797
C      0.40195     2.32501     0.95287
O      0.62018     1.02174     0.43750
H     -0.64357     2.46368     1.23515
H     -0.02693     0.89704    -0.30516
H      1.02419     2.46022     1.83584
H      0.67125     3.07955     0.21465
C     -0.62672    -0.28546    -2.45122
O     -1.18878     0.46342    -1.37783
H     -1.38140    -0.46831    -3.21684
H     -1.74931    -0.15227    -0.85565
H      0.18559     0.28585    -2.89459
H     -0.23153    -1.24331    -2.10895
