 36
-694.8502290734367
C      0.56835     2.56768     0.38609
O      1.42103     1.45527     0.12520
H      0.41495     2.63823     1.46051
H      1.45965     1.29390    -0.83879
H      1.02611     3.49127     0.03029
H     -0.40265     2.43458    -0.08933
C      2.85448     0.42999    -2.89247
O      1.52043     0.39512    -2.40822
H      2.96899    -0.22164    -3.76003
H      1.31068    -0.53837    -2.20370
H      3.08732     1.45114    -3.18911
H      3.56353     0.11417    -2.12231
C      0.46558    -0.95851     2.38930
O      0.75077    -0.89853     0.99439
H      0.18061     0.02122     2.76964
H      1.08725     0.00833     0.78233
H     -0.36060    -1.64916     2.54835
H      1.33778    -1.31957     2.93385
C     -2.01622     0.21280    -1.17298
O     -1.84766    -0.41106     0.09380
H     -2.65641    -0.40808    -1.80268
H     -0.92336    -0.68176     0.20416
H     -2.52339     1.16889    -1.03102
H     -1.06524     0.38190    -1.68172
C     -0.06646    -2.92667    -1.84487
O      1.02363    -2.08267    -1.50080
H     -0.99844    -2.55503    -1.41853
H      1.02363    -1.93228    -0.54064
H     -0.14873    -2.93433    -2.92973
H      0.10644    -3.94691    -1.49852
C     -2.75139     0.95271     3.15992
O     -1.98383     1.46106     2.08868
H     -2.45787    -0.06864     3.42320
H     -2.01445     0.81193     1.36423
H     -2.58972     1.58632     4.03117
H     -3.82028     0.94781     2.92844
