 48
-926.476574518509
C      0.26460    -1.85775     3.47167
O     -0.72016    -1.37726     2.57497
H     -0.10515    -1.83000     4.49769
H     -0.54940    -0.42407     2.42090
H      0.51446    -2.88848     3.21646
H      1.17540    -1.26180     3.41300
C     -3.17400    -2.75881    -2.26107
O     -2.38237    -1.87721    -1.48839
H     -3.39435    -2.29031    -3.21837
H     -2.24296    -2.30775    -0.61588
H     -2.64865    -3.69959    -2.44289
H     -4.11511    -2.98179    -1.75405
C      0.78564    -1.00216    -1.02691
O     -0.20726    -0.28197    -1.76209
H      0.50638    -1.13912     0.01894
H     -1.00342    -0.85080    -1.80822
H      0.95097    -1.98376    -1.47128
H      1.71761    -0.44699    -1.06915
C      1.11129     3.20501    -2.67937
O      1.37967     3.29919    -1.28361
H      0.48350     2.33968    -2.89712
H      0.55261     3.10187    -0.82006
H      0.61590     4.10816    -3.03710
H      2.05946     3.09101    -3.20155
C     -2.35809     1.84492    -0.48336
O     -0.93394     1.89101    -0.41038
H     -2.76163     2.09338     0.49717
H     -0.59343     1.16101    -0.98430
H     -2.71680     2.57333    -1.20953
H     -2.69066     0.84676    -0.76568
C     -1.00832    -4.15512     0.77595
O     -1.84586    -3.01694     0.84218
H      0.01861    -3.88167     0.51795
H     -1.46741    -2.41120     1.51755
H     -0.99876    -4.69005     1.72667
H     -1.38581    -4.83518     0.01231
C      1.28006     1.44593     2.03697
O     -0.11096     1.14274     2.05176
H      1.47519     2.38262     1.51619
H     -0.48089     1.47604     1.21308
H      1.61659     1.54758     3.06773
H      1.86279     0.66241     1.54975
C      4.40936     2.07970    -0.10889
O      3.28819     1.41918    -0.65876
H      4.16255     2.57840     0.83399
H      2.63561     2.09999    -0.88877
H      5.18274     1.33902     0.08926
H      4.81512     2.83050    -0.79286
