 36
-694.8502939359513
C     -2.67106     1.78438    -2.57704
O     -2.51199     1.16149    -1.31329
H     -2.64799     2.87504    -2.50049
H     -1.68827     1.47095    -0.91068
H     -1.89577     1.46933    -3.28316
H     -3.63836     1.48470    -2.97818
C      2.91943     0.36500    -0.66567
O      2.18389     0.75812     0.48473
H      3.96584     0.18921    -0.41024
H      2.11048    -0.01941     1.08197
H      2.50113    -0.53514    -1.11261
H      2.88231     1.17794    -1.39033
C      2.12608    -2.64318     1.52425
O      1.62825    -1.38600     1.97209
H      1.81151    -2.84460     0.50075
H      0.66156    -1.38831     1.90626
H      3.21308    -2.60037     1.56242
H      1.78659    -3.44840     2.17754
C     -0.02183    -0.88134    -2.25008
O      0.29865    -1.79840    -1.21643
H      0.27879     0.13861    -1.99835
H     -0.25837    -1.60763    -0.45479
H      0.52572    -1.18538    -3.14099
H     -1.08756    -0.88303    -2.47503
C     -0.30930     2.74019     1.31103
O     -0.23273     1.72300     0.32191
H     -1.30087     3.18717     1.27416
H      0.71213     1.41756     0.29592
H     -0.13815     2.32446     2.30613
H      0.43919     3.50890     1.11980
C     -2.52970    -1.07208     1.22315
O     -1.13098    -0.79153     1.20685
H     -3.00389    -0.60848     2.09026
H     -1.00341     0.14086     0.96193
H     -3.00511    -0.70638     0.31379
H     -2.64837    -2.15125     1.28775
