 60
-1158.0972832089499
C     -3.78712    -1.12618    -0.91093
O     -3.66087    -1.82182     0.32285
H     -3.38764    -1.73517    -1.72131
H     -3.41921    -1.14475     0.99023
H     -4.83914    -0.92639    -1.12182
H     -3.24793    -0.17917    -0.88400
C      3.83188     1.24201    -1.85155
O      2.98311     1.17298    -0.72194
H      4.78757     0.77592    -1.61112
H      2.29842     1.87675    -0.79150
H      3.39002     0.70137    -2.69200
H      4.01388     2.27335    -2.15967
C      1.29668     3.45239     2.29499
O      1.48174     2.05035     2.45345
H      1.76375     3.99246     3.11939
H      2.43005     1.83185     2.30743
H      1.70689     3.79561     1.34795
H      0.22658     3.66029     2.31183
C     -1.53922    -4.07215    -3.35681
O     -0.94748    -3.04446    -2.58970
H     -1.14746    -5.05825    -3.09122
H     -1.12332    -3.25105    -1.65772
H     -2.62699    -4.09387    -3.23087
H     -1.32108    -3.88923    -4.40813
C      4.51821     0.06323     2.22187
O      3.93988     1.27678     1.77425
H      4.71984     0.14575     3.28769
H      3.72640     1.18204     0.82383
H      3.84479    -0.78106     2.05468
H      5.45726    -0.13712     1.70185
C     -2.08359    -4.89179     0.41741
O     -1.69593    -3.59785    -0.00326
H     -2.35652    -4.89411     1.47467
H     -2.45448    -2.99579     0.16463
H     -2.93358    -5.25773    -0.16391
H     -1.24203    -5.56745     0.27401
C     -3.19591     1.45360     1.67013
O     -2.72848     0.12943     1.86417
H     -2.80597     1.87947     0.74405
H     -1.75268     0.16631     1.81829
H     -4.28308     1.43452     1.61531
H     -2.90283     2.09695     2.50167
C     -0.36391     0.30792    -2.04517
O     -0.80492     1.24582    -1.06861
H     -0.45978     0.77281    -3.02374
H     -0.70844     0.83454    -0.19146
H      0.68028     0.02458    -1.89922
H     -0.96405    -0.59708    -2.04044
C      1.17897     3.86617    -2.16173
O      1.14463     3.08743    -0.98125
H      0.40157     4.63020    -2.15010
H      0.32346     2.54920    -0.99598
H      2.14340     4.36767    -2.22059
H      1.04796     3.24820    -3.05202
C      0.68366    -0.84160     1.29543
O     -0.12249     0.32758     1.44807
H      1.07217    -1.14135     2.26695
H      0.45798     1.03114     1.85629
H      0.08138    -1.65658     0.89172
H      1.52008    -0.64087     0.62541
