 36
-694.8533075622978
C      1.05688     1.86421    -2.11189
O      0.33172     2.65292    -1.18789
H      1.23742     0.84725    -1.74955
H     -0.29650     2.09331    -0.72046
H      0.53316     1.81096    -3.07156
H      2.02000     2.34456    -2.28738
C      2.24235     1.56760     1.45483
O      1.21175     0.59224     1.54249
H      1.94271     2.43919     2.03502
H      1.41706    -0.13821     0.91711
H      3.17588     1.18441     1.87013
H      2.40238     1.87220     0.42245
C      2.03354    -2.65093     0.20616
O      1.53494    -1.39829    -0.22607
H      1.25418    -3.24305     0.69246
H      0.75604    -1.56482    -0.80598
H      2.42770    -3.22397    -0.63470
H      2.83964    -2.48384     0.92063
C     -1.09107    -0.81377    -2.54330
O     -0.68430    -1.81999    -1.62736
H     -1.23643     0.14461    -2.04156
H     -1.34583    -1.82068    -0.90183
H     -0.32040    -0.70727    -3.30451
H     -2.02224    -1.09637    -3.03373
C     -1.57213    -2.00731     1.64940
O     -2.16548    -1.33169     0.55024
H     -1.49567    -3.06646     1.40392
H     -1.96380    -0.38247     0.65025
H     -0.57145    -1.62524     1.85804
H     -2.18446    -1.90441     2.54657
C     -1.81539     2.29191     1.51632
O     -1.22107     1.20494     0.82878
H     -2.82875     2.42337     1.14375
H     -0.32057     1.04662     1.21055
H     -1.85204     2.10002     2.59064
H     -1.25844     3.21542     1.34321
