 36
-694.8518229273271
C      1.59885     0.76283     3.59431
O      1.14347     0.98972     2.27939
H      2.65330     0.46946     3.61490
H      1.24585     0.16551     1.78584
H      1.49098     1.68815     4.15932
H      1.01613    -0.01656     4.09480
C      1.75212     1.27496    -1.55131
O      0.52783     0.82334    -2.11877
H      1.79669     2.35663    -1.66146
H      0.42681    -0.12206    -1.94989
H      1.82636     1.02155    -0.49435
H      2.60295     0.85228    -2.08840
C      2.71848    -1.84379     0.30736
O      1.48452    -1.29458     0.73079
H      3.01201    -1.45118    -0.66811
H      0.79402    -1.55426     0.09556
H      3.48022    -1.57139     1.03582
H      2.66590    -2.93241     0.24540
C     -2.29377    -0.44453     1.39901
O     -2.43397    -0.49688    -0.01814
H     -1.51184     0.25262     1.69990
H     -2.31612     0.42086    -0.35415
H     -3.23699    -0.14597     1.85762
H     -2.03856    -1.44014     1.76100
C     -0.91409    -2.50627    -2.27735
O     -0.47011    -1.77190    -1.14806
H     -1.58593    -3.30756    -1.97048
H     -1.27732    -1.36182    -0.73199
H     -1.43787    -1.85382    -2.97848
H     -0.04563    -2.93761    -2.76937
C     -1.27481     2.82723     0.05102
O     -1.66112     1.88497    -0.93795
H     -0.47037     2.44789     0.68207
H     -0.86615     1.63953    -1.45037
H     -0.95363     3.76264    -0.41026
H     -2.14304     3.04118     0.67315
