 36
-694.8567460473015
C     -0.67540     2.72953    -0.34615
O      0.42808     2.46992     0.51673
H     -1.59952     2.58192     0.21398
H      1.14611     2.12310    -0.05811
H     -0.64375     3.75819    -0.70318
H     -0.66854     2.05102    -1.19983
C      0.71730    -0.95273    -3.82335
O      0.30789    -0.22042    -2.68265
H      1.27447    -0.28910    -4.48227
H     -0.24337    -0.81876    -2.12961
H      1.35599    -1.79438    -3.54279
H     -0.14673    -1.33927    -4.36753
C     -0.81938    -2.74357     2.27816
O     -0.15391    -1.90137     1.35744
H     -0.84916    -3.75152     1.86726
H     -0.16816    -0.99394     1.72295
H     -0.29136    -2.77555     3.23324
H     -1.84408    -2.40771     2.45749
C      2.69878     0.12692    -0.34274
O      2.06204     1.12664    -1.12760
H      3.37945     0.62161     0.34745
H      1.47807     0.66913    -1.76613
H      1.97813    -0.46053     0.23081
H      3.27913    -0.54875    -0.97273
C     -2.32495    -0.85353    -0.74328
O     -1.22557    -1.69286    -1.07827
H     -2.51355    -0.17364    -1.57522
H     -0.79187    -1.91753    -0.22820
H     -3.22071    -1.45194    -0.57473
H     -2.11051    -0.26472     0.15007
C     -0.39008     1.11437     3.57401
O     -0.34662     0.62144     2.24681
H     -0.87836     0.37428     4.20641
H     -0.02347     1.34761     1.66243
H      0.61573     1.29940     3.95558
H     -0.96160     2.04310     3.62533
