 36
-694.853633308093
C      0.81501     2.80002     1.31301
O      1.03872     1.40353     1.44109
H      1.76205     3.33311     1.22449
H      1.54443     1.11558     0.64268
H      0.19828     3.02701     0.44376
H      0.31068     3.15230     2.21158
C      1.64073     1.14871    -1.98210
O      2.15988     0.54871    -0.80199
H      2.06718     0.68695    -2.87265
H      2.09957    -0.42482    -0.92323
H      0.55397     1.05534    -2.01761
H      1.90548     2.20503    -1.98492
C      2.48406    -2.87591    -0.16804
O      1.73771    -2.08132    -1.07616
H      3.51878    -2.90778    -0.50320
H      0.79191    -2.20177    -0.84909
H      2.44902    -2.45759     0.84133
H      2.09837    -3.89578    -0.13522
C     -1.69551    -0.16929     2.79117
O     -1.02649    -0.14591     1.54511
H     -2.49222    -0.90889     2.74114
H     -0.21177     0.41612     1.63759
H     -1.00963    -0.43901     3.59409
H     -2.13283     0.80770     3.00880
C     -1.74193    -1.89867    -1.27593
O     -0.82401    -2.19652    -0.23367
H     -1.73962    -2.72632    -1.98329
H     -0.92132    -1.51759     0.45748
H     -2.75418    -1.78403    -0.88348
H     -1.46293    -0.98279    -1.80062
C     -3.04097     2.01229    -0.73034
O     -1.71129     1.53353    -0.82120
H     -3.22245     2.52672     0.21935
H     -1.52696     0.95768    -0.06733
H     -3.20069     2.72292    -1.53986
H     -3.77268     1.20461    -0.83050
