 60
-1158.095101145764
C     -2.58368     0.71808    -1.62309
O     -1.78205     0.43154    -0.49283
H     -3.36801     1.41687    -1.33402
H     -1.27177    -0.38040    -0.69021
H     -1.99052     1.16988    -2.41315
H     -3.05753    -0.18034    -2.01864
C     -1.10262     3.94621    -2.27389
O      0.20031     3.58501    -2.66391
H     -1.82885     3.79062    -3.07902
H      0.19005     2.66412    -2.94845
H     -1.43604     3.38202    -1.39703
H     -1.10160     5.00389    -2.01490
C      0.96812     1.25901     4.05688
O      1.12032     0.18830     3.13454
H      1.89225     1.83339     4.07753
H      0.28755    -0.35244     3.18011
H      0.14930     1.91491     3.75698
H      0.76517     0.88306     5.05861
C     -0.95008    -2.52660     2.62516
O     -1.06854    -1.23586     3.21559
H     -1.79532    -3.15552     2.90596
H     -1.83576    -0.78595     2.79388
H     -0.90310    -2.46374     1.53705
H     -0.04828    -3.00834     2.99611
C      2.46501    -2.41047     1.33097
O      2.56005    -2.35790     2.73479
H      3.15015    -1.70878     0.85432
H      2.27852    -1.48104     3.01526
H      2.72942    -3.41761     1.01129
H      1.45687    -2.19437     0.97293
C     -0.86892    -2.30504    -2.45401
O     -0.44842    -1.78040    -1.20498
H     -0.83700    -1.54927    -3.23881
H      0.46929    -1.46697    -1.29358
H     -0.25052    -3.15423    -2.74849
H     -1.89374    -2.65737    -2.34675
C     -4.03187    -0.96095     1.42355
O     -3.01694    -0.05212     1.81549
H     -3.85308    -1.32226     0.40974
H     -2.57320     0.24095     0.99267
H     -4.04101    -1.81638     2.10013
H     -5.01282    -0.48359     1.46622
C      3.22227    -0.47658    -1.81861
O      1.87620    -0.33224    -1.40040
H      3.86753    -0.67505    -0.96611
H      1.86922     0.23344    -0.57392
H      3.29050    -1.31402    -2.51071
H      3.57213     0.42875    -2.31503
C      0.86394     0.31739    -4.63001
O      0.35945     0.81468    -3.40585
H      0.02682     0.03684    -5.27053
H      0.89667     0.45277    -2.67951
H      1.44823     1.08080    -5.14649
H      1.49120    -0.56502    -4.47914
C      0.94914     2.31230     0.59987
O      1.73658     1.12156     0.69775
H     -0.11313     2.07467     0.57412
H      1.56250     0.72415     1.57883
H      1.14621     2.96260     1.45203
H      1.21215     2.85250    -0.30707
