 42
-810.6628003936784
C     -2.71712     1.95784     1.70636
O     -1.86707     0.98841     1.12395
H     -2.58290     2.93163     1.23242
H     -0.94816     1.11062     1.45791
H     -3.74479     1.63329     1.56984
H     -2.51592     2.05200     2.77451
C     -2.19428    -2.56371     0.51988
O     -1.70117    -1.90039     1.67537
H     -2.06309    -3.63644     0.66394
H     -1.87033    -0.95753     1.57473
H     -3.25870    -2.36874     0.36172
H     -1.64959    -2.26761    -0.37851
C      0.69405     0.14361     3.11801
O      0.66558     0.79995     1.85705
H      0.48260    -0.91969     3.01349
H      0.99433     0.16289     1.18966
H      1.66730     0.27630     3.59361
H     -0.06675     0.58230     3.76510
C     -0.55815     1.99630    -1.58934
O     -1.40912     0.85711    -1.50673
H      0.12795     1.87775    -2.42439
H     -1.71500     0.80632    -0.58277
H     -1.15035     2.89810    -1.75440
H      0.02713     2.12082    -0.67948
C      0.78924    -1.13643    -3.34138
O      0.03122    -1.28750    -2.14744
H      1.46948    -1.98181    -3.42012
H     -0.58324    -0.52278    -2.06744
H      0.13628    -1.13806    -4.21533
H      1.37439    -0.21824    -3.33047
C      3.08313     2.07865    -0.50467
O      2.60306     1.09583    -1.40767
H      3.13393     3.03107    -1.03261
H      2.30822     0.32832    -0.90108
H      2.41351     2.19450     0.35132
H      4.08380     1.83453    -0.13669
C      1.53879    -2.36453     0.71037
O      1.35460    -1.10603     0.07442
H      2.23844    -2.24564     1.53658
H      0.80017    -1.25355    -0.73530
H      0.58893    -2.73252     1.09037
H      1.96054    -3.08723     0.01215
