 60
-1158.086471822135
C     -2.52268     2.47866    -4.63997
O     -3.76586     2.24128    -3.99170
H     -2.21353     3.48624    -4.36580
H     -4.09841     1.39531    -4.29188
H     -1.75717     1.77746    -4.30691
H     -2.61363     2.43462    -5.72803
C      2.63433    -2.71926     2.70953
O      3.11493    -1.38157     2.63522
H      3.02042    -3.31831     1.88496
H      2.80060    -1.01036     1.79528
H      2.97499    -3.15824     3.64626
H      1.54460    -2.74734     2.68283
C      1.08072     2.32437    -3.40834
O      0.48295     1.14304    -2.93924
H      1.68783     2.81683    -2.64100
H     -0.00134     1.37082    -2.12742
H      1.73099     2.08418    -4.24957
H      0.33367     3.04554    -3.75037
C      2.25180     0.88701    -0.10553
O      1.70629    -0.31292     0.43619
H      1.52321     1.69150    -0.06266
H      0.97713    -0.07238     1.05984
H      3.13805     1.17727     0.46155
H      2.53326     0.71588    -1.14208
C      2.58748     1.27823     4.74963
O      1.80080     0.13853     4.43418
H      3.58849     0.98334     5.06531
H      2.38484    -0.48226     3.95411
H      2.67653     1.93861     3.88290
H      2.10644     1.81636     5.56235
C     -1.23607    -2.96960     1.61249
O     -1.33525    -2.67191     0.22993
H     -0.80288    -2.13578     2.16750
H     -0.44772    -2.79877    -0.16971
H     -2.23408    -3.17283     1.99695
H     -0.62735    -3.86107     1.77647
C     -2.78517    -0.52263    -1.82431
O     -2.42785    -0.36522    -0.45697
H     -3.55856     0.20370    -2.07294
H     -2.05024    -1.22528    -0.16355
H     -1.92263    -0.34906    -2.47553
H     -3.17353    -1.52319    -2.02226
C      1.14882    -2.55162    -2.18165
O      1.15007    -2.68867    -0.76556
H      2.16595    -2.59410    -2.57601
H      1.46042    -1.84779    -0.37870
H      0.58414    -3.38053    -2.60650
H      0.68188    -1.61363    -2.49063
C     -1.16852     0.92525     2.51532
O      0.10050     0.29825     2.34415
H     -1.37236     1.09676     3.57209
H      0.61138     0.32636     3.18256
H     -1.18408     1.87965     1.99351
H     -1.95121     0.28987     2.10796
C     -1.80576     2.91790    -0.83761
O     -0.91042     1.83922    -0.65218
H     -2.49665     3.00580     0.00229
H     -1.43062     1.04239    -0.41862
H     -1.22250     3.83616    -0.88861
H     -2.38814     2.81853    -1.75581
