 42
-810.6664937718269
C     -1.70530    -0.62070     1.73960
O     -1.04060    -1.20755     0.63489
H     -1.65254    -1.26631     2.62025
H     -0.09132    -1.28003     0.82429
H     -1.28427     0.35529     1.98415
H     -2.75712    -0.49055     1.48613
C      1.08776     0.89215     3.50766
O      1.32071     0.96718     2.11198
H      2.01080     1.05452     4.06492
H      1.62459     0.09573     1.80021
H      0.37309     1.66758     3.78154
H      0.67038    -0.07750     3.78645
C     -2.93536     0.89937    -1.18972
O     -2.40630    -0.34761    -1.57587
H     -3.94832     0.79071    -0.78845
H     -1.88554    -0.69878    -0.83787
H     -2.31343     1.40362    -0.44826
H     -3.00666     1.54011    -2.07078
C     -0.60923     3.41366     0.60992
O      0.00534     2.22323     0.16612
H     -1.39688     3.19430     1.33829
H      0.49442     1.82647     0.91458
H      0.11519     4.08700     1.07115
H     -1.06535     3.91370    -0.24436
C      0.72091    -2.34839    -2.13333
O      1.63514    -1.41801    -1.56575
H      1.00255    -2.57319    -3.16320
H      1.33333    -0.52173    -1.85069
H      0.75087    -3.27632    -1.56259
H     -0.29381    -1.95607    -2.11725
C      2.05878    -2.79929     1.46943
O      1.73069    -1.49915     1.01121
H      2.96023    -3.16271     0.97836
H      1.82918    -1.48511     0.01926
H      2.23310    -2.75527     2.54233
H      1.24244    -3.49580     1.26845
C     -0.10092     1.25153    -3.26591
O      0.71692     0.96568    -2.14308
H     -0.52694     2.25372    -3.18628
H      0.38030     1.43102    -1.35696
H      0.51516     1.21502    -4.16348
H     -0.91063     0.52934    -3.34652
