 36
-694.8469503376401
C     -0.36572     3.62673    -2.58697
O     -0.16002     2.29602    -2.14833
H      0.15262     3.75639    -3.53696
H     -0.49463     2.21815    -1.24180
H     -1.42740     3.84109    -2.73981
H      0.03301     4.35526    -1.87476
C      2.48626     1.46850     0.37156
O      1.42653     0.60156     0.75708
H      2.64718     2.18713     1.17114
H      1.31283    -0.05809     0.02544
H      3.40479     0.90293     0.21630
H      2.23384     1.99952    -0.54589
C      1.01823    -0.87941    -2.46207
O      0.98556    -1.21323    -1.07482
H      0.83292    -1.76246    -3.07430
H      0.16391    -1.70097    -0.87337
H      0.28542    -0.10834    -2.69207
H      2.01209    -0.49945    -2.69246
C      0.77675    -2.22615     2.68610
O     -0.15033    -1.22713     2.26656
H      1.29032    -2.67923     1.83511
H      0.37035    -0.46854     1.95630
H      1.52303    -1.80870     3.36304
H      0.22167    -3.00024     3.21449
C     -1.92406     1.33245     1.02867
O     -0.86031     2.16060     0.58064
H     -2.85544     1.87175     0.86677
H     -0.02930     1.72265     0.82062
H     -1.95856     0.39217     0.47562
H     -1.82966     1.11180     2.09330
C     -1.87424    -3.61967     0.19540
O     -1.29736    -2.33669     0.02010
H     -1.10544    -4.39380     0.26160
H     -1.07439    -1.98623     0.90025
H     -2.48554    -3.65278     1.09971
H     -2.51119    -3.82914    -0.66163
