 60
-1158.0999978429916
C      0.71785     3.74705    -3.13993
O      0.07662     3.52189    -1.90483
H      1.46683     4.52744    -3.00619
H     -0.38077     2.67372    -1.97886
H      1.21900     2.84789    -3.50800
H      0.01073     4.08153    -3.90391
C      2.27940     1.03415    -1.28665
O      1.70407     0.29186    -2.35844
H      1.74282     0.87458    -0.35232
H      0.76801     0.55638    -2.43411
H      3.30833     0.70595    -1.15029
H      2.28269     2.09922    -1.51008
C      1.26574    -0.81112     3.47096
O      1.27172    -0.46909     2.08880
H      1.33872    -1.89062     3.59870
H      1.93136    -1.06443     1.65341
H      2.10896    -0.34242     3.97571
H      0.33960    -0.46122     3.92309
C      1.26336    -3.06776    -2.13364
O      2.33686    -2.22479    -1.74238
H      1.01107    -2.92055    -3.18373
H      2.13029    -1.32134    -2.07302
H      1.57561    -4.10215    -2.00352
H      0.37455    -2.88689    -1.52597
C      2.36488    -3.59344     1.25600
O      2.70989    -2.26827     0.87708
H      2.72866    -4.31680     0.52832
H      2.65063    -2.22887    -0.10787
H      2.82369    -3.81484     2.21755
H      1.28276    -3.70571     1.34464
C     -1.74679    -2.26079     1.82834
O     -0.87068    -1.76983     0.82305
H     -2.71371    -2.46910     1.37225
H     -0.15586    -1.27116     1.25287
H     -1.37239    -3.20209     2.23771
H     -1.88437    -1.54234     2.63472
C     -3.34364     1.50753     3.65496
O     -2.10803     0.82813     3.59150
H     -3.23140     2.58647     3.50946
H     -1.58014     1.19391     2.86949
H     -4.04377     1.12965     2.90208
H     -3.78269     1.33804     4.63737
C     -3.22186     0.41162    -0.08901
O     -2.31803    -0.33010    -0.89913
H     -2.69582     1.03887     0.62640
H     -1.77012    -0.88757    -0.30402
H     -3.82247     1.04462    -0.74010
H     -3.90114    -0.25519     0.44362
C      0.17535     2.95795     1.48024
O     -0.37548     1.64828     1.44366
H     -0.64553     3.67094     1.54827
H      0.33691     1.00627     1.59376
H      0.82721     3.09239     2.34755
H      0.73234     3.17631     0.57083
C     -1.36524     0.71991    -3.88761
O     -0.91261     1.01887    -2.57826
H     -0.93159     1.43983    -4.57838
H     -1.47821     0.50944    -1.93601
H     -1.05620    -0.28504    -4.17843
H     -2.45075     0.78429    -3.94578
