 48
-926.4765301253547
C      1.75645    -1.28536     3.28618
O      0.37837    -1.17954     2.97460
H      2.11896    -0.36998     3.75723
H      0.28250    -0.48203     2.29002
H      1.89695    -2.11366     3.97978
H      2.35390    -1.47451     2.39038
C     -3.07293    -0.99942     1.25195
O     -2.43171    -1.90118     0.35617
H     -2.52294    -0.05820     1.30742
H     -1.90134    -2.52316     0.90280
H     -4.08105    -0.79534     0.89624
H     -3.12977    -1.42592     2.25201
C      0.20237    -1.66087    -1.53522
O     -0.80105    -0.67387    -1.27051
H      0.18952    -2.41783    -0.75331
H     -1.51519    -1.11522    -0.74124
H     -0.00065    -2.14220    -2.49092
H      1.17677    -1.18149    -1.56824
C      1.20666     4.40101    -2.30186
O      0.88959     3.33365    -1.42849
H      2.05047     4.14013    -2.94763
H      0.15479     2.82705    -1.82797
H      0.35676     4.67089    -2.93292
H      1.48485     5.27165    -1.70919
C     -0.12526     1.26350    -3.80288
O     -0.80652     1.62368    -2.60701
H      0.46626     2.11057    -4.14875
H     -0.92579     0.78985    -2.11247
H      0.54652     0.42382    -3.62493
H     -0.83762     0.99693    -4.58697
C     -1.68344    -3.94770     3.04391
O     -0.91458    -3.32176     2.02848
H     -1.21187    -4.87867     3.36247
H     -0.38003    -2.61733     2.45335
H     -1.78915    -3.28953     3.90941
H     -2.67694    -4.17645     2.65596
C     -0.35735     1.92357     1.20052
O      0.16268     0.60832     1.03256
H     -1.06320     2.17784     0.40803
H      0.00243     0.30989     0.12218
H     -0.86873     1.97327     2.16312
H      0.45447     2.64980     1.19065
C      3.23802     0.53919    -0.46108
O      2.45092     0.87844    -1.58733
H      2.62674     0.39605     0.43245
H      2.00113     1.72142    -1.43214
H      3.75225    -0.39828    -0.67810
H      3.99627     1.29876    -0.25145
