 42
-810.6583354639762
C     -4.06473     2.39054     0.25262
O     -2.77403     1.83572     0.40833
H     -4.66813     1.81915    -0.45927
H     -2.31127     1.90735    -0.44663
H     -4.56866     2.37488     1.21864
H     -4.02158     3.42753    -0.09400
C      4.03478    -0.70207     0.60173
O      2.94361    -0.76873     1.50766
H      4.62633     0.18078     0.83408
H      2.51852    -1.64396     1.38169
H      4.66881    -1.58491     0.69061
H      3.68102    -0.63096    -0.43086
C      0.95831    -3.66209     1.98367
O      1.47963    -2.93718     0.88159
H      0.53832    -4.61510     1.65658
H      0.73374    -2.48303     0.44661
H      1.76594    -3.86401     2.68658
H      0.18260    -3.09111     2.49684
C     -0.39949     2.92545    -2.02349
O     -1.51161     2.05003    -1.98674
H     -0.73907     3.92374    -1.75533
H     -1.21140     1.18341    -2.32426
H      0.38299     2.61816    -1.32698
H      0.02374     2.97287    -3.02796
C      0.88182    -0.38565    -2.71818
O     -0.53616    -0.37428    -2.61133
H      1.24113    -1.36527    -3.03549
H     -0.75820    -0.90890    -1.83652
H      1.17348     0.34911    -3.46675
H      1.34123    -0.12794    -1.76329
C     -1.65095    -1.32667     0.97405
O     -0.53828    -1.26319     0.08662
H     -1.96477    -2.36547     1.07234
H     -0.07704    -0.41533     0.28771
H     -1.37528    -0.94653     1.95692
H     -2.47812    -0.73778     0.58775
C      0.39261     1.53476     1.99158
O      0.89980     0.81655     0.87257
H     -0.65291     1.77574     1.81561
H      1.72466     0.35792     1.15576
H      0.47582     0.94343     2.90631
H      0.94168     2.46676     2.13239
