 18
-347.40529806468214
C     -1.46180     2.31029    -0.36164
O     -0.87207     1.43487     0.58454
H     -2.12138     1.76677    -1.04397
H     -0.10546     1.02547     0.17262
H     -2.05695     3.04475     0.18024
H     -0.70734     2.83946    -0.95160
C     -1.74501    -1.72761     0.14402
O     -0.46807    -2.19239    -0.26724
H     -2.14819    -0.99354    -0.55600
H      0.13939    -1.45395    -0.20208
H     -2.41491    -2.58565     0.17428
H     -1.70953    -1.27108     1.13505
C      2.67345    -0.11897     0.41640
O      1.51469     0.05490    -0.39595
H      2.32949    -0.12090     1.44635
H      1.76749     0.08670    -1.31794
H      3.15600    -1.07028     0.19739
H      3.37654     0.70084     0.27251
