 60
-1158.090884788327
C      4.74648    -0.28897     0.62857
O      4.24368     0.77757     1.41287
H      5.52852     0.04675    -0.05728
H      3.74569     1.36619     0.83888
H      5.17736    -1.02589     1.30636
H      3.95671    -0.77384     0.05011
C      2.30951    -0.95202    -4.16129
O      1.38803    -0.82317    -3.09070
H      1.84404    -0.65872    -5.10380
H      1.29470     0.13569    -2.88539
H      3.19526    -0.33525    -3.99758
H      2.61916    -1.99460    -4.23635
C      1.42371     3.22856     0.82495
O      1.88406     2.06679     0.13746
H      1.75611     4.09620     0.25885
H      1.47550     1.27342     0.52816
H      0.33770     3.23935     0.89972
H      1.86355     3.27796     1.82258
C     -0.02867     2.46338    -2.55030
O      1.18502     1.74236    -2.41101
H     -0.44179     2.74896    -1.58285
H      1.53503     1.93770    -1.52114
H      0.13501     3.35872    -3.15178
H     -0.76154     1.84382    -3.07223
C      1.01387    -3.43890    -0.91822
O      1.79239    -2.24989    -0.88938
H     -0.04363    -3.22159    -1.06305
H      1.66258    -1.78734    -1.74950
H      1.35269    -4.09965    -1.71608
H      1.13859    -3.95418     0.03250
C     -2.86379    -3.11666     2.46889
O     -3.29860    -2.97505     1.13247
H     -1.90843    -3.64571     2.53269
H     -2.61697    -2.45756     0.68314
H     -2.75291    -2.14874     2.96476
H     -3.61072    -3.69536     3.00906
C     -4.40962     0.14909     1.74811
O     -3.02607     0.43718     1.87801
H     -4.95640     0.83437     2.39243
H     -2.53997    -0.24741     1.39283
H     -4.74781     0.29314     0.71863
H     -4.63247    -0.87128     2.05194
C     -1.71227    -0.58775    -1.07061
O     -1.45457    -1.20475     0.19268
H     -0.93889    -0.82746    -1.79614
H     -0.54980    -0.95753     0.49007
H     -2.66802    -0.96061    -1.43445
H     -1.77782     0.49489    -0.96803
C      1.36537    -0.78086     2.23326
O      1.00622    -0.52230     0.87869
H      2.44519    -0.84682     2.33419
H      1.46005    -1.17600     0.28389
H      0.99782     0.04176     2.84495
H      0.90024    -1.70320     2.58576
C     -3.20902     3.60715     0.71456
O     -2.10114     2.72964     0.71461
H     -3.04769     4.43497     1.41019
H     -2.36906     1.94624     1.22250
H     -3.34803     4.02283    -0.28586
H     -4.12845     3.09157     1.00074
