 36
-694.8475890037248
C     -0.45070     1.88612    -1.11810
O     -1.35952     1.54052    -0.07420
H     -0.81163     1.53934    -2.08459
H     -1.48214     0.58195    -0.08222
H     -0.37375     2.97159    -1.13551
H      0.54017     1.46685    -0.93578
C      1.70029    -2.54178    -1.21777
O      1.25285    -1.20343    -1.34176
H      2.77647    -2.57487    -1.38326
H      0.45519    -1.12817    -0.79107
H      1.48677    -2.93533    -0.22194
H      1.21282    -3.18593    -1.95360
C      1.65962    -0.59613     2.47457
O      0.24515    -0.53051     2.65423
H      2.05035    -1.42013     3.06622
H      0.01550     0.42304     2.72834
H      1.90618    -0.76412     1.42426
H      2.12985     0.33189     2.79691
C      1.12376     0.74673    -4.37628
O      0.28717    -0.26238    -3.85269
H      2.05382     0.33805    -4.78231
H      0.70336    -0.60351    -3.05146
H      0.58808     1.24966    -5.18119
H      1.38194     1.49064    -3.61554
C     -1.64311    -2.46324     0.45700
O     -0.85338    -1.28535     0.40004
H     -1.92723    -2.73076    -0.55772
H     -0.50234    -1.08552     1.30635
H     -1.07516    -3.28524     0.89585
H     -2.54271    -2.29617     1.04885
C     -1.46592     2.53555     3.17846
O     -0.39543     2.05163     2.38229
H     -1.10777     2.65215     4.19896
H     -0.71762     2.01091     1.45715
H     -1.81131     3.50346     2.81399
H     -2.30695     1.83781     3.17249
