 36
-694.8572919949024
C      3.13030     2.38104    -0.32068
O      1.91192     1.76135    -0.70364
H      3.08378     2.73271     0.71062
H      1.20276     2.12522    -0.12916
H      3.94089     1.65662    -0.40623
H      3.34884     3.22759    -0.97390
C     -1.97903     1.54389    -1.48342
O     -2.30112     1.57268    -0.09662
H     -0.89759     1.60860    -1.62607
H     -2.41985     0.64123     0.17371
H     -2.33047     0.61912    -1.94284
H     -2.45184     2.39006    -1.97838
C      0.19846    -3.50222     0.41405
O      0.06569    -2.10969     0.62065
H      1.24696    -3.79886     0.40046
H      0.80371    -1.66196     0.14959
H     -0.29425    -4.03187     1.22776
H     -0.26166    -3.80329    -0.53145
C      1.89305    -1.23024    -2.15072
O      1.94879    -0.89140    -0.77397
H      2.49687    -0.54306    -2.74272
H      1.97269     0.09110    -0.73001
H      2.27924    -2.23904    -2.28501
H      0.86321    -1.19101    -2.51583
C     -3.22032    -1.82420     1.26889
O     -2.35233    -1.05238     0.46166
H     -3.40672    -2.80120     0.81700
H     -1.46018    -1.45764     0.50685
H     -2.80257    -1.97707     2.26613
H     -4.16760    -1.29664     1.36304
C      0.17255     1.40664     2.04719
O     -0.01781     2.40148     1.04338
H     -0.38097     0.49986     1.80514
H     -0.91939     2.25612     0.68649
H      1.23230     1.16107     2.11238
H     -0.15681     1.77793     3.01815
