 42
-810.6640403150603
C     -2.68238     1.26781     0.42522
O     -1.92940     0.08954     0.68596
H     -2.63304     1.96249     1.26672
H     -1.00408     0.34298     0.80279
H     -2.32462     1.77947    -0.46762
H     -3.72027     0.97493     0.27577
C     -2.45261    -2.64044     3.07986
O     -1.98249    -1.31573     3.22554
H     -2.07831    -3.23170     3.91608
H     -2.14378    -0.84802     2.39713
H     -3.54543    -2.68535     3.08547
H     -2.09751    -3.09507     2.14947
C     -1.31251     0.07291    -2.78108
O      0.00870     0.57987    -2.68661
H     -1.35056    -0.64869    -3.59557
H      0.01213     1.31632    -2.04263
H     -1.61692    -0.41903    -1.85504
H     -2.01809     0.87487    -3.00543
C      3.06201    -0.77187    -2.65586
O      1.84143    -1.30220    -2.16582
H      3.41053     0.05352    -2.02900
H      1.13735    -0.66440    -2.41213
H      3.81159    -1.56016    -2.65481
H      2.94457    -0.40390    -3.67603
C      0.59429    -2.38000     0.73786
O      1.63675    -1.43759     0.49495
H      0.90936    -3.37891     0.43711
H      1.81981    -1.47078    -0.47209
H      0.35515    -2.39670     1.79884
H     -0.30664    -2.11281     0.18125
C      1.12216     3.48145    -1.10648
O      0.16521     2.48413    -0.78259
H      1.14988     4.25984    -0.34154
H      0.45453     2.03791     0.03610
H      2.11989     3.04615    -1.20784
H      0.83907     3.93622    -2.05478
C      0.82897     0.96859     2.74621
O      0.85853     0.91978     1.32205
H      1.81980     1.19639     3.13699
H      1.28322     0.06693     1.05059
H      0.14002     1.75589     3.04456
H      0.48293     0.02336     3.16104
