 36
-694.8452055543747
C      1.52093     2.55424    -1.18424
O      1.03105     1.76187    -0.11495
H      2.54116     2.86920    -0.96108
H      0.73171     0.89707    -0.45350
H      1.51874     2.00052    -2.12303
H      0.90071     3.44695    -1.29562
C      0.86370    -1.69253    -1.30456
O      0.03709    -0.68482    -0.74832
H      1.47816    -1.25626    -2.08853
H     -0.59034    -1.10635    -0.12488
H      1.51443    -2.13276    -0.54473
H      0.26061    -2.48776    -1.74604
C      1.25418    -0.74808     2.74114
O     -0.14309    -0.57110     2.93124
H      1.55769    -0.46405     1.73131
H     -0.33299     0.37527     2.73850
H      1.81913    -0.15137     3.45724
H      1.49497    -1.79834     2.90180
C     -0.24644     0.55951    -3.92495
O      1.15116     0.28314    -4.00155
H     -0.79483     0.04447    -4.71731
H      1.48499     0.60477    -4.83875
H     -0.59439     0.20107    -2.96160
H     -0.45061     1.63228    -3.99209
C     -1.64047    -3.30550     1.24355
O     -1.48380    -1.91273     1.04981
H     -2.18401    -3.71191     0.39355
H     -1.07397    -1.53406     1.85932
H     -0.67272    -3.80975     1.31558
H     -2.20966    -3.51334     2.15096
C     -1.86813     1.90772     1.39912
O     -0.59400     1.90923     2.04061
H     -2.28633     0.89920     1.38249
H      0.07600     2.03087     1.34376
H     -2.54665     2.56173     1.94595
H     -1.77745     2.26225     0.37235
