 42
-810.6614629029049
C     -2.57561    -1.90152     1.16491
O     -1.28557    -1.96351     1.77630
H     -3.21044    -2.66680     1.60763
H     -0.97767    -1.05255     1.89394
H     -3.02926    -0.92409     1.32565
H     -2.49932    -2.08188     0.09088
C     -1.55417     1.86844     1.45292
O     -0.68831     0.74891     1.34531
H     -1.11439     2.75273     0.99466
H     -0.59588     0.55504     0.37986
H     -2.50768     1.66608     0.96483
H     -1.73335     2.06186     2.50686
C     -0.36398    -2.91126    -3.40805
O     -0.69555    -2.24437    -2.20217
H     -0.66958    -3.95786    -3.36665
H     -0.36617    -2.78884    -1.45360
H     -0.89239    -2.42534    -4.22553
H      0.71081    -2.86231    -3.60041
C      1.56419    -2.93219     0.27809
O      0.22191    -3.33042     0.05478
H      2.19292    -3.38184    -0.48888
H     -0.31948    -2.91587     0.76367
H      1.66477    -1.84640     0.22827
H      1.91151    -3.27154     1.25394
C     -0.33481     1.21235    -2.20432
O     -0.38308     0.20651    -1.19984
H      0.45963     1.91622    -1.96914
H     -0.52489    -0.67039    -1.61629
H     -0.13974     0.77095    -3.18169
H     -1.28083     1.75564    -2.24892
C      0.80147     4.99624     0.39046
O      0.97158     3.76741    -0.28429
H      0.27413     5.68166    -0.27209
H      1.37858     3.14088     0.33598
H      0.21012     4.87819     1.30452
H      1.75999     5.44720     0.66138
C      2.62421     0.89065     0.87769
O      1.84218     1.86839     1.54662
H      3.56230     1.35000     0.57523
H      0.97906     1.45962     1.72336
H      2.84981     0.05671     1.54510
H      2.11543     0.50932    -0.01064
