 42
-810.6652379747474
C     -2.52324    -0.25598     0.23845
O     -2.00642    -1.51369     0.65541
H     -2.34937     0.50948     0.99161
H     -1.23234    -1.32956     1.22218
H     -2.07345     0.07508    -0.69875
H     -3.59563    -0.35786     0.08228
C     -0.18350    -0.64424     3.48392
O      0.07740    -0.63202     2.08667
H      0.71853    -0.91172     4.03699
H      0.20621     0.28385     1.78174
H     -0.54215     0.32817     3.82999
H     -0.94921    -1.39162     3.69120
C      1.43040    -1.23373    -1.12405
O      0.42090    -0.87336    -2.07014
H      2.07650    -0.38096    -0.92644
H     -0.24363    -1.59783    -2.04669
H      0.98043    -1.55236    -0.18423
H      2.04076    -2.04814    -1.51360
C     -2.52495    -2.90823    -2.38253
O     -1.35149    -2.79350    -1.59828
H     -3.21371    -2.08152    -2.19420
H     -1.62232    -2.48134    -0.70925
H     -2.24523    -2.89856    -3.43541
H     -3.04102    -3.84520    -2.16765
C      1.15231     2.40932    -2.31313
O      0.09188     1.72572    -1.65314
H      1.19915     2.12942    -3.36566
H      0.14613     0.78154    -1.92970
H      0.96632     3.48010    -2.25025
H      2.11348     2.18717    -1.84526
C      3.32916     0.57543     1.66767
O      3.00302     1.61344     0.76596
H      2.74390    -0.32814     1.47733
H      2.09189     1.88056     0.92607
H      4.38356     0.33267     1.53936
H      3.17172     0.87383     2.70818
C     -0.63938     3.07720     1.34615
O      0.10017     1.93653     0.95115
H     -0.74071     3.07125     2.43038
H      0.04137     1.87197    -0.03662
H     -0.13006     3.99318     1.04231
H     -1.63430     3.06445     0.89812
