 30
-579.0438180751034
C      2.09126     1.11123    -1.77634
O      1.56259     0.40648    -0.66887
H      2.48729     0.42526    -2.52751
H      0.98545    -0.30906    -1.01849
H      1.32012     1.72909    -2.24575
H      2.90049     1.75381    -1.43187
C     -0.31374    -2.10207     1.67030
O     -1.30139    -1.85185     0.67392
H     -0.72579    -2.72127     2.46794
H     -1.66646    -0.96220     0.87253
H      0.52787    -2.63018     1.22013
H      0.04921    -1.16459     2.09324
C     -2.13707     1.30736    -0.11827
O     -1.88472     0.71550     1.14889
H     -2.72559     2.21810     0.00268
H     -1.03549     1.08291     1.46538
H     -1.20610     1.55126    -0.63378
H     -2.70836     0.60905    -0.72969
C      0.68796     2.99456     1.19870
O      0.63336     1.61717     1.52819
H      1.34485     3.52303     1.89049
H      1.06805     1.12992     0.79999
H      1.05478     3.13227     0.18086
H     -0.30823     3.43710     1.26996
C      0.61522    -2.69752    -2.17544
O      0.04007    -1.53410    -1.60835
H      0.97801    -3.37902    -1.40382
H     -0.55223    -1.79666    -0.86714
H     -0.10769    -3.22382    -2.80105
H      1.45811    -2.39898    -2.79805
