 60
-1158.091753799024
C      2.21058     1.69854    -3.28030
O      3.06645     1.84080    -2.15370
H      1.29411     1.16127    -3.02768
H      2.58062     2.39331    -1.50176
H      1.94510     2.67143    -3.69302
H      2.74491     1.14592    -4.05169
C      0.66435     4.13360    -1.09919
O      1.48256     3.17131    -0.45344
H      0.18283     3.71196    -1.98485
H      0.88283     2.53718    -0.02230
H     -0.11133     4.50660    -0.42925
H      1.29132     4.96962    -1.40148
C      4.82118    -1.05519    -1.48138
O      3.52031    -0.58233    -1.17005
H      5.57828    -0.46427    -0.96592
H      3.45733     0.34477    -1.50248
H      4.90623    -2.08911    -1.15272
H      5.01142    -1.00746    -2.55632
C     -1.45733    -0.78102     4.51021
O     -0.84162     0.45163     4.21112
H     -1.56106    -1.41182     3.62467
H     -1.45407     0.97083     3.67907
H     -0.83162    -1.30613     5.23259
H     -2.44647    -0.64233     4.95791
C     -4.34778    -1.64029     2.10027
O     -3.19488    -1.03999     1.53256
H     -5.24858    -1.04574     1.92072
H     -3.09047    -0.14588     1.88658
H     -4.48403    -2.61713     1.63754
H     -4.23939    -1.79043     3.17917
C      1.55779    -2.28192    -3.18419
O      1.30992    -1.76947    -1.88487
H      1.94003    -1.50206    -3.84420
H      2.14890    -1.35680    -1.56010
H      2.28032    -3.09625    -3.14359
H      0.62397    -2.66295    -3.59526
C     -2.09832    -0.80909    -1.59049
O     -0.86287    -0.09674    -1.68363
H     -2.40218    -1.15336    -2.57980
H     -0.14186    -0.74208    -1.82036
H     -2.03267    -1.65557    -0.91285
H     -2.86385    -0.13077    -1.21810
C     -0.31197    -3.47385     0.94539
O     -0.47485    -3.45430    -0.46014
H      0.63880    -3.03285     1.26004
H      0.23490    -2.93236    -0.85191
H     -1.12388    -2.92344     1.42386
H     -0.33844    -4.50351     1.30302
C     -3.22237     2.78235     1.63519
O     -2.39784     1.74871     2.14536
H     -4.09564     2.86369     2.27687
H     -1.64010     1.66421     1.53710
H     -2.69556     3.73799     1.63421
H     -3.54366     2.55335     0.61676
C      0.45230     0.25750     1.18347
O     -0.29568     1.25804     0.47506
H      0.87154     0.70234     2.08240
H     -0.59447     0.82847    -0.36979
H     -0.18936    -0.56742     1.48036
H      1.25997    -0.12677     0.56423
