 36
-694.8464198247452
C      1.93363     2.68264    -2.46828
O      3.07599     2.01049    -1.94967
H      2.20334     3.36056    -3.28088
H      3.62162     2.64975    -1.49106
H      1.26435     1.92249    -2.85942
H      1.40364     3.23467    -1.69149
C      0.94760     1.53387     0.64290
O     -0.21848     1.76549    -0.14787
H      1.77639     1.20616     0.01776
H     -0.17962     1.15115    -0.90362
H      1.21831     2.46728     1.13408
H      0.75764     0.78367     1.41182
C      1.52257    -2.33557     0.64711
O      0.19354    -1.96016     0.33177
H      2.17095    -1.45724     0.71381
H     -0.25811    -1.69698     1.16352
H      1.57068    -2.86995     1.59690
H      1.90393    -2.98894    -0.13586
C      0.71410    -0.92351    -2.87966
O     -0.05405    -0.39292    -1.81564
H      0.52028    -1.98946    -3.01144
H      0.00205    -1.02120    -1.06467
H      0.42980    -0.41106    -3.79701
H      1.78515    -0.77990    -2.71454
C     -1.81918    -1.99578     3.38857
O     -1.02124    -1.16454     2.56491
H     -2.79953    -2.17300     2.94154
H     -1.56536    -0.40092     2.26946
H     -1.31352    -2.95288     3.50981
H     -1.95747    -1.54767     4.37435
C     -3.06934     0.17151     0.26055
O     -2.29582     0.79802     1.28156
H     -3.37145    -0.82090     0.59667
H     -1.58759     1.29750     0.82379
H     -3.96687     0.75522     0.05255
H     -2.48389     0.06657    -0.65322
