 36
-694.8481024649443
C     -2.85617     0.76614    -1.95482
O     -2.45091     1.85322    -1.14360
H     -2.39091     0.80655    -2.94395
H     -1.49433     1.80417    -1.03684
H     -2.62106    -0.19637    -1.49813
H     -3.93507     0.83265    -2.08841
C      3.74453     1.14819     0.38237
O      2.51802     0.57249    -0.04116
H      4.56059     0.43156     0.27784
H      2.33825    -0.20834     0.52854
H      3.95629     2.01126    -0.24510
H      3.68747     1.46833     1.42490
C      1.98989    -2.75405     1.07277
O      1.67593    -1.42999     1.49944
H      1.40524    -3.02619     0.19736
H      0.71413    -1.34632     1.58378
H      3.05139    -2.78101     0.82706
H      1.80448    -3.46821     1.87600
C     -0.09215    -1.69138    -1.86108
O     -0.79735    -2.42879    -0.88210
H      0.72889    -2.29746    -2.24781
H     -0.99704    -1.81641    -0.16353
H     -0.74201    -1.45002    -2.70579
H      0.31779    -0.75886    -1.46372
C      0.21301     2.77965     0.85480
O      0.16168     1.66688    -0.02983
H     -0.77990     3.22281     0.90711
H      1.08312     1.31924    -0.12886
H      0.51849     2.46812     1.85658
H      0.91486     3.52823     0.48754
C     -2.45490    -0.38758     1.49760
O     -1.09205    -0.51903     1.09894
H     -2.51700    -0.29150     2.58148
H     -0.79369     0.32852     0.72341
H     -2.91442     0.47665     1.02136
H     -2.99130    -1.28639     1.19437
