 60
-1158.0893804924808
C      2.39205     1.49653    -3.24800
O      1.45574     1.28365    -2.20294
H      2.83979     2.49218    -3.18334
H      1.96306     1.31597    -1.35970
H      3.18957     0.75227    -3.21448
H      1.87479     1.40670    -4.20248
C      2.54486     5.18429     0.02306
O      1.69996     4.12780     0.44705
H      1.98421     6.11428    -0.07943
H      0.98350     4.04393    -0.21323
H      3.31900     5.32260     0.77460
H      3.01889     4.95426    -0.93513
C     -1.62386    -3.10644     2.58432
O     -0.67617    -2.36148     1.83222
H     -1.29154    -4.13839     2.70165
H     -0.61522    -2.73400     0.92454
H     -1.69508    -2.65568     3.57152
H     -2.59911    -3.08465     2.10459
C     -3.70936    -3.71107    -0.41850
O     -3.85077    -2.39403     0.08474
H     -4.38195    -4.36145     0.14027
H     -3.37680    -1.79341    -0.50389
H     -3.97056    -3.77037    -1.47827
H     -2.69121    -4.08714    -0.29475
C      0.85916    -2.36546    -1.11879
O     -0.43161    -2.88071    -0.78080
H      1.17252    -2.74117    -2.09304
H     -1.08560    -2.32323    -1.23135
H      0.86445    -1.27504    -1.13976
H      1.57690    -2.70652    -0.37540
C      2.80257    -2.04181     3.47389
O      2.23599    -2.38006     2.22171
H      3.84817    -2.34675     3.46610
H      1.27572    -2.35119     2.29342
H      2.76001    -0.96333     3.65247
H      2.30095    -2.54769     4.30358
C     -1.71254    -0.12836    -2.67665
O     -2.11564    -0.76499    -1.46912
H     -2.54154     0.45950    -3.06914
H     -1.77206    -0.25475    -0.70631
H     -0.84690     0.50976    -2.51708
H     -1.46256    -0.89463    -3.40906
C     -2.57283     0.46221     1.63671
O     -1.36477     0.09386     0.98510
H     -3.24027    -0.38965     1.76126
H     -1.04943    -0.73520     1.39776
H     -2.36730     0.89986     2.61571
H     -3.08775     1.21311     1.03551
C      2.35949     0.81334     1.15799
O      2.73896     1.66918     0.08731
H      1.35298     0.41631     1.00872
H      2.48099     2.58284     0.33048
H      3.05557    -0.01955     1.21675
H      2.37761     1.35105     2.10709
C     -1.26614     3.13513    -1.01858
O     -0.03222     3.55818    -1.58105
H     -1.13139     2.31259    -0.31273
H      0.41538     2.78019    -1.96005
H     -1.70743     3.98238    -0.49575
H     -1.96190     2.82537    -1.79935
