 30
-579.0438258659551
C      2.33742     0.98045    -1.42745
O      1.66564     0.31130    -0.37694
H      1.61961     1.44879    -2.10657
H      1.18861    -0.45953    -0.75893
H      2.97697     1.75467    -1.00482
H      2.96078     0.29369    -2.00239
C     -0.74101    -1.86388     1.80219
O     -1.47352    -1.71029     0.58924
H     -1.34616    -2.37832     2.54959
H     -1.83225    -0.79613     0.60070
H      0.15326    -2.45829     1.61034
H     -0.43633    -0.89208     2.19199
C     -2.00437     1.30474    -0.76247
O     -2.04303     0.90166     0.59926
H     -2.57501     2.22363    -0.90389
H     -1.26854     1.30582     1.03814
H     -0.97877     1.46867    -1.09672
H     -2.45306     0.52470    -1.37751
C      0.67506     3.10022     1.05882
O      0.37622     1.77179     1.44097
H     -0.19754     3.73156     1.22703
H      0.91870     1.18803     0.87202
H      1.50392     3.49523     1.64897
H      0.94374     3.14979     0.00236
C      0.88243    -3.03373    -1.65348
O      0.34362    -1.75801    -1.35551
H      1.04256    -3.61932    -0.74608
H     -0.41201    -1.87346    -0.73468
H      0.21810    -3.58906    -2.31763
H      1.83990    -2.89886    -2.15433
