 42
-810.6646656043998
C     -2.02888    -0.22504     2.28142
O     -2.70481     0.19057     1.10319
H     -2.34216    -1.24153     2.51792
H     -2.40792     1.10703     0.90041
H     -0.94542    -0.20748     2.15086
H     -2.29070     0.41588     3.12292
C      1.11395    -2.44916     1.88567
O      1.53791    -1.19256     1.38985
H      1.58836    -3.27074     1.34312
H      1.00886    -1.00001     0.59849
H      1.39794    -2.51897     2.93387
H      0.03079    -2.57182     1.81109
C      0.90433    -1.42469    -2.03294
O      0.17316    -0.77231    -1.00162
H      0.96077    -2.49520    -1.83565
H     -0.75719    -1.12489    -0.98400
H      0.42900    -1.26562    -3.00068
H      1.91578    -1.02426    -2.06320
C      4.95839    -0.23321     0.26804
O      3.94084    -1.07305    -0.24055
H      5.57817     0.09755    -0.56550
H      3.26701    -1.18005     0.44312
H      4.54275     0.65162     0.75990
H      5.59423    -0.75713     0.98716
C     -3.16306    -1.15963    -1.95884
O     -2.31420    -1.50775    -0.87321
H     -2.96741    -1.83564    -2.78822
H     -2.59609    -0.94970    -0.10792
H     -4.20978    -1.25087    -1.67075
H     -2.97896    -0.13270    -2.28501
C     -2.48878     3.30766    -0.47025
O     -1.75014     2.61662     0.52283
H     -3.40606     3.68805    -0.02530
H     -0.85655     2.45061     0.15047
H     -1.91752     4.14864    -0.86514
H     -2.74561     2.64358    -1.30127
C      1.78717     1.96248     0.01799
O      0.52969     1.87659    -0.63840
H      2.04972     3.01420     0.11391
H      0.38309     0.94019    -0.86177
H      1.74468     1.51514     1.01277
H      2.56360     1.45572    -0.55391
