 36
-694.8496987075391
C      0.75747     4.22239    -0.26942
O      1.50220     3.44769    -1.18871
H      1.33243     5.12123    -0.05070
H      1.01024     2.63988    -1.36476
H     -0.20757     4.52580    -0.68446
H      0.57984     3.68712     0.66698
C      1.20796    -0.38255    -1.42368
O      0.37502     0.71744    -1.07422
H      0.81222    -0.85450    -2.32148
H      0.51255     0.87661    -0.10773
H      2.22353    -0.04357    -1.63070
H      1.23413    -1.12522    -0.62696
C      2.21454     1.35246     1.80557
O      0.89473     0.93746     1.48256
H      2.91942     0.52626     1.69619
H      0.75444     0.03106     1.83178
H      2.51333     2.15731     1.13760
H      2.26008     1.71560     2.83313
C     -1.10836    -3.47441    -0.68759
O     -1.35419    -2.34015     0.11902
H     -1.99745    -3.75306    -1.25493
H     -1.69978    -1.62604    -0.46070
H     -0.29383    -3.29108    -1.39350
H     -0.83177    -4.30943    -0.04640
C     -2.42023    -0.46160    -2.85052
O     -2.04529    -0.34371    -1.49060
H     -2.58327     0.51775    -3.30286
H     -1.24933     0.22078    -1.43723
H     -1.66038    -0.99292    -3.42982
H     -3.35097    -1.02275    -2.90113
C     -0.28648    -1.95307     3.31008
O      0.30612    -1.61217     2.06943
H     -0.52228    -3.01819     3.34722
H     -0.30500    -1.91465     1.36329
H      0.41870    -1.72520     4.10755
H     -1.20672    -1.38799     3.47486
