 24
-463.22886007157337
C      0.08746     2.36604     1.71767
O      0.75980     1.12151     1.61552
H      0.74604     3.18909     1.43558
H      1.10040     1.04751     0.70077
H     -0.80089     2.39681     1.08072
H     -0.21573     2.50451     2.75212
C      1.38075     1.77259    -1.92258
O      1.23885     0.70073    -1.00605
H      2.20099     2.40292    -1.58326
H      0.48810     0.14080    -1.28746
H      1.61559     1.40484    -2.92304
H      0.46829     2.37225    -1.97226
C     -0.07533    -2.14967     1.58867
O     -0.85539    -1.00431     1.27263
H     -0.71877    -3.02684     1.53573
H     -0.33612    -0.22066     1.55323
H      0.75201    -2.27296     0.88605
H      0.33207    -2.07746     2.59716
C     -1.41867    -1.99779    -2.05665
O     -0.95882    -0.82829    -1.40145
H     -1.71207    -1.73266    -3.07025
H     -1.10228    -0.94602    -0.43854
H     -0.63377    -2.75673    -2.10164
H     -2.28466    -2.41805    -1.54147
