 42
-810.6583745652315
C     -4.05898     2.48762     0.28940
O     -2.73809     2.01901     0.46830
H     -4.54925     2.01013    -0.56422
H     -2.28937     2.03796    -0.39785
H     -4.63407     2.25500     1.18583
H     -4.08472     3.57062     0.13567
C      3.16120    -0.67128     3.01170
O      2.81818    -0.78596     1.64054
H      3.42230     0.36525     3.21896
H      2.37450    -1.65303     1.51298
H      2.32332    -0.95835     3.65167
H      4.02084    -1.29849     3.25144
C      1.88886    -3.76681     0.07593
O      1.31837    -2.93331     1.07451
H      1.95895    -3.24018    -0.87870
H      0.52732    -2.50890     0.69547
H      2.89148    -4.05118     0.39328
H      1.29935    -4.67462    -0.06053
C     -0.25801     2.73287    -1.96931
O     -1.46438     1.99183    -1.91012
H     -0.50163     3.79228    -1.91341
H     -1.29168     1.10813    -2.28874
H      0.40504     2.46567    -1.14776
H      0.26192     2.56149    -2.91457
C      0.66498    -0.47738    -3.02122
O     -0.71856    -0.46714    -2.68832
H      1.24854     0.11201    -2.31240
H     -0.82218    -0.99016    -1.88069
H      1.05137    -1.49748    -3.03513
H      0.77479    -0.04986    -4.01521
C     -1.67749    -1.17796     0.99455
O     -0.61727    -1.23795     0.04312
H     -2.17341    -2.14607     1.00487
H     -0.09078    -0.41008     0.13561
H     -1.29489    -0.97546     1.99594
H     -2.39131    -0.40474     0.72859
C      0.53776     1.60293     1.63242
O      1.02558     0.82270     0.54498
H     -0.54973     1.61433     1.63095
H      1.80019     0.32004     0.88181
H      0.89149     1.20109     2.58270
H      0.88447     2.63338     1.54073
