 36
-694.8447165314395
C      3.08594    -0.20922    -2.61260
O      3.99529     0.26506    -1.62404
H      3.29350     0.21783    -3.59640
H      4.88966     0.09519    -1.92062
H      3.10328    -1.30012    -2.68236
H      2.09171     0.09708    -2.30476
C      1.30177     2.31403    -0.50157
O      0.43506     1.19737    -0.60222
H      2.31280     2.04769    -0.81258
H      0.78529     0.48694    -0.01909
H      0.92779     3.10384    -1.15323
H      1.33325     2.69456     0.52185
C      2.37051    -1.57622     0.97556
O      1.19189    -0.78758     1.02249
H      2.54395    -2.07011     1.93361
H      0.41442    -1.38773     0.99569
H      2.30437    -2.33900     0.19601
H      3.21880    -0.92976     0.75969
C     -2.89571     1.55678    -1.34857
O     -2.18069     1.55545    -0.12915
H     -3.93894     1.79122    -1.14607
H     -1.22390     1.47106    -0.32987
H     -2.50110     2.30533    -2.03852
H     -2.84472     0.57869    -1.83398
C     -1.44176    -2.10733    -0.67154
O     -1.11689    -2.11584     0.71096
H     -2.37838    -2.63588    -0.85063
H     -1.80446    -1.57958     1.16235
H     -1.53059    -1.08899    -1.05253
H     -0.64948    -2.61776    -1.21864
C     -2.05325     0.20932     2.91725
O     -2.74956    -0.25886     1.76614
H     -2.37154    -0.37784     3.77607
H     -2.67709     0.44491     1.08746
H     -0.97352     0.09593     2.78987
H     -2.27184     1.26134     3.10769
