 24
-463.2290783991647
C      2.73576     0.53485     0.78142
O      1.85099     0.69825    -0.31449
H      2.20025     0.23839     1.68751
H      1.51725    -0.19076    -0.55221
H      3.49274    -0.21978     0.56341
H      3.23571     1.48319     0.96160
C     -0.98962     2.60818    -0.73464
O     -0.52411     1.79973     0.33342
H     -0.37992     3.50609    -0.83716
H      0.40602     1.56280     0.13278
H     -0.97464     2.06165    -1.68111
H     -2.01290     2.90843    -0.51614
C     -3.03855    -0.59478     0.09895
O     -1.65992    -0.63124     0.42271
H     -3.18923    -0.35487    -0.95664
H     -1.34646     0.29606     0.48662
H     -3.46801    -1.57325     0.30404
H     -3.56340     0.14773     0.70431
C      1.05044    -2.89960    -0.09546
O      0.61292    -1.67448    -0.65767
H      2.02678    -3.13448    -0.51531
H     -0.26504    -1.45515    -0.28878
H      1.13768    -2.82437     0.99129
H      0.36163    -3.71082    -0.33845
