 36
-694.8484202728908
C      1.39091     3.60982    -2.86627
O      0.10509     3.15202    -3.22435
H      1.43735     3.92283    -1.81845
H     -0.14205     2.46709    -2.59718
H      2.14780     2.83584    -3.02784
H      1.63378     4.46414    -3.49445
C      1.38410    -2.21617     2.51161
O      0.77349    -2.12545     1.23654
H      1.02651    -1.41924     3.16948
H      1.15995    -1.35136     0.77169
H      1.13460    -3.17830     2.95481
H      2.46938    -2.14184     2.43583
C      2.95429     0.01531    -0.72445
O      1.74327     0.02924     0.01213
H      3.73453    -0.41984    -0.10228
H      1.06921     0.49819    -0.51597
H      2.85652    -0.58009    -1.63481
H      3.25533     1.02792    -0.99658
C     -0.78915    -0.34770    -2.04924
O     -0.46038     0.88571    -1.40182
H     -1.36945    -0.14988    -2.94908
H     -1.07164     0.96601    -0.63390
H      0.13140    -0.86100    -2.32834
H     -1.36233    -0.98412    -1.37661
C     -2.44248    -2.84105     2.23217
O     -1.88883    -2.00378     1.23484
H     -2.20234    -2.47590     3.23477
H     -0.92059    -2.15794     1.21760
H     -3.52365    -2.85441     2.11486
H     -2.07121    -3.86374     2.13826
C     -1.15179     1.19297     1.93368
O     -1.88171     0.67226     0.83093
H     -0.12280     0.82576     1.94182
H     -2.02319    -0.28217     0.99146
H     -1.14043     2.27829     1.85458
H     -1.62588     0.92032     2.87786
