 54
-1042.283306301482
C      4.09569     0.94771    -0.41001
O      3.76659     1.76124     0.71064
H      4.93065     0.30858    -0.12974
H      3.28017     2.54522     0.37093
H      3.25624     0.31743    -0.71108
H      4.39143     1.55816    -1.26113
C     -0.01709     1.72564    -2.75773
O      1.05618     1.73095    -1.82542
H     -0.94420     2.06210    -2.28470
H      0.80085     1.15754    -1.08291
H      0.23210     2.41088    -3.56608
H     -0.17123     0.72723    -3.16236
C     -3.80710    -1.27799    -1.35564
O     -2.79197    -2.25915    -1.19280
H     -3.72099    -0.85604    -2.35704
H     -2.74337    -2.45309    -0.23389
H     -4.79949    -1.72304    -1.25292
H     -3.69849    -0.47492    -0.62553
C     -0.77363    -2.62377    -3.91500
O     -0.88861    -1.55288    -2.99748
H     -0.44715    -3.54268    -3.41951
H     -1.53846    -1.82489    -2.32520
H     -1.72125    -2.82416    -4.42293
H     -0.03183    -2.35647    -4.66636
C      2.95993    -0.78258     2.78554
O      2.21467     0.32799     2.31066
H      2.27185    -1.59075     3.03180
H      2.85227     0.92061     1.84737
H      3.66696    -1.13708     2.03292
H      3.51486    -0.51352     3.68459
C      0.65721    -1.19822    -0.16511
O      0.45208     0.11653     0.36653
H      0.91259    -1.13994    -1.22259
H      1.06482     0.21752     1.13570
H      1.46736    -1.68782     0.37225
H     -0.24942    -1.79635    -0.07409
C      1.10946     3.84196     0.67615
O      2.15486     3.66161    -0.27213
H      0.43724     2.98131     0.68373
H      1.77407     3.15940    -1.01748
H      1.55002     3.95898     1.66555
H      0.53667     4.73959     0.44418
C     -3.88163    -2.67909     2.20413
O     -2.69882    -2.38502     1.48302
H     -4.35431    -3.55287     1.75753
H     -2.46279    -1.45078     1.66160
H     -3.65473    -2.90583     3.24840
H     -4.58511    -1.84390     2.16876
C     -1.57154     0.70841     2.92581
O     -1.97867     0.20889     1.65834
H     -0.50362     0.55229     3.08549
H     -1.21356     0.28034     1.06119
H     -1.79058     1.77472     3.00152
H     -2.12339     0.18519     3.70685
