 30
-579.0313856766656
C      3.09492     0.96554     0.68092
O      1.79346     0.51392     1.01719
H      3.85340     0.23223     0.96434
H      1.69312    -0.37739     0.62914
H      3.17793     1.15261    -0.39351
H      3.28899     1.89250     1.21833
C     -1.50679    -0.26864     1.93717
O     -2.06431     0.95693     2.41120
H     -1.97176    -1.12484     2.43312
H     -1.70242     1.13390     3.27961
H     -1.70996    -0.34238     0.87192
H     -0.42752    -0.31221     2.08075
C     -0.88065    -0.78529    -3.19499
O     -0.63848    -0.84753    -1.79957
H     -1.80147    -0.23410    -3.40211
H     -0.60578     0.07548    -1.46793
H     -0.05444    -0.29437    -3.71441
H     -0.98882    -1.79914    -3.57620
C     -1.31372     2.52015    -0.41445
O     -0.31794     1.55145    -0.72653
H     -1.91416     2.67418    -1.30961
H      0.31873     1.47699     0.00198
H     -1.94675     2.16916     0.39769
H     -0.85406     3.47010    -0.13714
C      0.84439    -2.94042     0.56885
O      1.30845    -1.84956    -0.20821
H     -0.16939    -2.76119     0.93344
H      0.62065    -1.62609    -0.86758
H      0.85093    -3.86596    -0.01043
H      1.50907    -3.06039     1.42379
