 36
-694.8493084667225
C      0.14911     2.69026    -2.19570
O     -0.21216     2.45342    -0.84705
H      0.93485     3.44369    -2.26632
H      0.62022     2.38964    -0.32694
H      0.50641     1.77142    -2.66885
H     -0.72487     3.04963    -2.73584
C      2.48634     3.10673     1.43669
O      1.97893     2.08281     0.59814
H      3.30838     2.73747     2.05139
H      1.76521     1.30956     1.16642
H      2.85595     3.91595     0.80993
H      1.70801     3.50025     2.09532
C      0.95913    -1.29540    -1.00387
O     -0.00028    -1.60950     0.00187
H      1.82828    -1.93009    -0.84641
H     -0.75313    -0.99180    -0.12832
H      0.55714    -1.48883    -1.99876
H      1.27008    -0.25028    -0.95252
C     -1.23392    -4.45787    -0.96805
O     -0.54769    -4.43120     0.26535
H     -1.17926    -5.46797    -1.36853
H     -0.35589    -3.50652     0.44608
H     -2.28635    -4.18742    -0.84475
H     -0.78641    -3.77169    -1.69168
C     -2.57361     0.17763    -1.58506
O     -1.79020     0.34990    -0.41751
H     -2.67475    -0.88811    -1.79955
H     -1.27166     1.17844    -0.52210
H     -3.57164     0.59305    -1.44128
H     -2.10929     0.66052    -2.44655
C     -0.20465     0.51631     2.59528
O      1.03367     0.05310     2.04677
H     -1.04864     0.12347     2.03198
H      0.83643    -0.75462     1.54902
H     -0.28797     0.20903     3.63765
H     -0.23241     1.60378     2.54541
