 54
-1042.2881177035845
C      1.77627     0.14250    -0.39421
O      2.40417    -0.51211     0.70714
H      2.45790     0.12529    -1.24311
H      2.19378     0.00685     1.50939
H      0.85359    -0.35764    -0.68371
H      1.54581     1.17809    -0.15853
C     -0.72896     2.58304    -4.13166
O      0.19414     1.85895    -3.33284
H     -1.74433     2.50261    -3.73511
H      0.13900     2.24006    -2.43420
H     -0.45610     3.63794    -4.18531
H     -0.71383     2.17270    -5.14025
C     -1.64266    -2.32468    -0.45076
O     -1.88108    -1.03660    -0.99856
H     -1.90283    -2.31389     0.60610
H     -1.48820    -0.99578    -1.89765
H     -2.26677    -3.07014    -0.94877
H     -0.59783    -2.62229    -0.54011
C      0.82606     2.05635     2.53366
O      1.32226     0.75789     2.82576
H      1.61933     2.63067     2.05337
H      0.57669     0.13816     2.89374
H     -0.03305     2.01521     1.86788
H      0.54785     2.57450     3.45297
C     -0.26116    -2.11721     4.02950
O     -0.38221    -1.51089     2.75495
H     -0.88145    -1.57068     4.73841
H      0.13540    -2.05263     2.12677
H     -0.60075    -3.15477     4.00404
H      0.77225    -2.10328     4.38831
C     -2.59567     0.96535     1.58636
O     -1.87107     1.18689     0.38536
H     -3.63386     0.71222     1.36712
H     -1.90264     0.33914    -0.11587
H     -2.14703     0.16154     2.16929
H     -2.58708     1.88426     2.17420
C     -0.65580     4.21977    -0.60738
O     -0.26008     2.88903    -0.87913
H      0.07553     4.89392    -1.04938
H     -0.86732     2.29363    -0.38896
H     -1.63992     4.43266    -1.02997
H     -0.69075     4.40414     0.46941
C      2.31470    -3.75832     1.77269
O      1.35886    -2.89713     1.17836
H      2.80737    -3.27595     2.62061
H      1.83841    -2.08513     0.89270
H      1.80246    -4.65207     2.12438
H      3.07527    -4.05521     1.04841
C      0.37456    -1.67819    -3.62999
O     -0.63551    -0.73465    -3.32120
H      0.11273    -2.63883    -3.18563
H     -0.26229     0.16751    -3.40411
H      0.46440    -1.81427    -4.70883
H      1.34128    -1.36769    -3.23116
