 42
-810.6673277236919
C     -2.03209    -1.38369     1.61881
O     -2.38896    -1.58740     0.26082
H     -1.10435    -0.81793     1.71461
H     -2.38463    -0.71223    -0.18130
H     -2.82225    -0.85135     2.15025
H     -1.90255    -2.35611     2.09136
C      1.54945    -0.31609     2.80905
O      1.46004     0.33076     1.55001
H      1.31499    -1.37690     2.71647
H      1.41679    -0.35286     0.83909
H      2.55436    -0.20204     3.21208
H      0.83803     0.14276     3.49639
C     -1.04735    -3.47563    -2.22484
O     -0.62346    -3.18649    -0.90312
H     -0.50960    -4.35169    -2.57837
H     -1.36093    -2.70917    -0.45965
H     -2.11727    -3.68398    -2.25788
H     -0.83930    -2.64003    -2.89842
C      4.07583     1.22787    -0.67930
O      3.13229     2.09307    -0.07503
H      4.49795     1.74664    -1.53922
H      2.72187     1.62364     0.65927
H      4.88891     0.97454     0.00614
H      3.61264     0.30009    -1.02540
C     -3.44856     1.59184    -0.78558
O     -2.22434     0.87955    -0.76915
H     -3.40032     2.42689    -1.48726
H     -1.59398     1.37296    -0.20172
H     -4.24177     0.91749    -1.10680
H     -3.69988     1.97996     0.20449
C      0.04450     3.33436     0.47880
O     -0.51289     2.09194     0.89161
H     -0.76277     3.97349     0.12336
H      0.21280     1.52553     1.20860
H      0.53761     3.82856     1.31694
H      0.76878     3.19568    -0.32437
C      0.87555    -0.37161    -1.62187
O      1.19426    -1.26221    -0.55033
H     -0.19786    -0.31593    -1.78783
H      0.62469    -2.05600    -0.65344
H      1.24211     0.62606    -1.38619
H      1.36173    -0.70526    -2.53946
