 36
-694.8548495261765
C      1.27362     3.01138     1.63555
O      0.94398     2.23906     0.49303
H      0.84706     2.57391     2.54030
H      0.00153     1.98060     0.59499
H      2.35801     3.04706     1.73836
H      0.89733     4.03052     1.52711
C      3.19325     0.28574    -1.24921
O      2.47706     0.11701    -0.03687
H      2.60141     0.83098    -1.98699
H      1.98573     0.94855     0.14816
H      4.12509     0.82579    -1.07450
H      3.43468    -0.69764    -1.65356
C     -0.55105     0.04877    -2.43777
O     -1.91195    -0.25989    -2.18772
H     -0.14905     0.76598    -1.72121
H     -1.94833    -0.76781    -1.37031
H      0.08399    -0.84029    -2.41933
H     -0.48521     0.48973    -3.43277
C      1.54685    -2.94357     1.09957
O      0.93410    -2.01452     0.22271
H      2.59319    -3.09377     0.83114
H      1.55443    -1.25415     0.12062
H      1.50054    -2.59458     2.13427
H      1.03429    -3.90085     1.02171
C     -2.31272    -2.44861     0.96944
O     -1.59076    -1.33056     0.48468
H     -3.37211    -2.20501     0.96470
H     -0.64789    -1.60636     0.39197
H     -2.14426    -3.31988     0.33420
H     -2.00611    -2.69131     1.98812
C     -2.56687     2.14847     0.09364
O     -1.56543     1.45732     0.83140
H     -2.47431     1.95793    -0.97422
H     -1.70677     0.49965     0.74315
H     -3.56253     1.85201     0.42620
H     -2.44396     3.21421     0.28254
