 36
-694.8526495293319
C      1.63960     3.52606     0.55114
O      1.44878     2.12384     0.51838
H      2.33139     3.84331    -0.23183
H      0.91770     1.91654    -0.28077
H      0.69543     4.05939     0.41733
H      2.06286     3.80288     1.51574
C      0.42749     1.09358    -2.70737
O     -0.18800     1.38608    -1.45773
H      1.07693     0.22178    -2.63458
H     -0.64105     0.58480    -1.14043
H     -0.32814     0.91243    -3.47363
H      1.02139     1.95778    -3.00342
C      1.38181    -1.71928     1.49951
O      0.00823    -1.48001     1.82529
H      1.88657    -2.20045     2.33651
H     -0.01990    -0.61166     2.28667
H      1.43484    -2.37872     0.63363
H      1.89001    -0.78437     1.26194
C      0.40002    -3.57016    -2.36281
O      0.64732    -2.19745    -2.11209
H     -0.49451    -3.71770    -2.97477
H     -0.09875    -1.82778    -1.62357
H      1.25730    -3.96835    -2.90307
H      0.28723    -4.13549    -1.43172
C     -2.69762    -1.02405    -0.17181
O     -1.30165    -0.87912    -0.36154
H     -3.00186    -0.60683     0.78843
H     -0.84757    -1.15458     0.47875
H     -3.21735    -0.49230    -0.96666
H     -2.97792    -2.07705    -0.19981
C     -1.30161     1.63229     2.21216
O     -0.02212     1.10026     2.50937
H     -1.37389     2.67206     2.53355
H      0.60341     1.49001     1.86107
H     -1.51956     1.58221     1.14389
H     -2.05319     1.05949     2.75416
