 60
-1158.0889514811527
C      3.42595    -4.52052     0.19035
O      2.58884    -3.55411    -0.41823
H      3.02063    -5.50863    -0.02911
H      2.84553    -2.68167    -0.09159
H      4.44730    -4.47060    -0.19855
H      3.46070    -4.39538     1.27694
C     -3.05067     2.50051    -2.54803
O     -2.50243     1.81253    -1.44206
H     -2.35867     3.28743    -2.85597
H     -2.77490     0.87787    -1.49101
H     -3.20954     1.84041    -3.40440
H     -4.00519     2.96895    -2.29154
C      0.12483     3.84206    -0.90305
O      1.19541     3.03565    -0.41259
H     -0.84194     3.37515    -0.71738
H      1.19567     3.13258     0.56777
H      0.14681     4.82398    -0.43065
H      0.26151     3.97750    -1.97582
C     -3.81998    -1.20749    -0.34495
O     -3.21478    -0.77024    -1.55302
H     -3.08981    -1.27258     0.46201
H     -2.56691    -1.44658    -1.81588
H     -4.58974    -0.48724    -0.06613
H     -4.29908    -2.17820    -0.48403
C      0.10491    -1.75611     1.82094
O     -0.74283    -0.84892     1.13146
H     -0.50145    -2.30330     2.54064
H     -0.21577    -0.38009     0.45863
H      0.56157    -2.47090     1.13721
H      0.90366    -1.24307     2.35785
C     -0.91514    -3.54629    -1.24871
O     -1.40739    -2.61711    -2.22245
H     -1.16857    -3.16465    -0.26255
H     -1.17523    -2.91902    -3.10157
H     -1.38839    -4.51963    -1.37785
H      0.16655    -3.64811    -1.31125
C      0.65972     0.07572    -1.96569
O      0.92757     0.45500    -0.61713
H      0.49612    -0.99912    -2.01261
H      1.03089     1.44729    -0.58332
H     -0.22370     0.58435    -2.34327
H      1.51248     0.32278    -2.59853
C     -2.40801     1.97028     2.15781
O     -1.22906     1.35845     2.66987
H     -3.29902     1.45821     2.52703
H     -1.13424     0.49332     2.23014
H     -2.44203     3.00276     2.50420
H     -2.41811     1.95856     1.06735
C      2.02233     2.09827     2.76909
O      0.94693     2.84604     2.22826
H      2.94057     2.67264     2.64498
H      0.11922     2.34503     2.41404
H      1.88021     1.91760     3.83547
H      2.13624     1.13685     2.26558
C      4.11846    -0.06297     0.35150
O      2.98764    -0.89410     0.53872
H      4.94688    -0.47347     0.92486
H      2.23350    -0.41696     0.14437
H      4.40709    -0.01410    -0.70101
H      3.92236     0.95171     0.70153
