 54
-1042.287140245703
C     -0.56888    -1.54484     3.44665
O      0.14081    -0.67519     2.57055
H     -0.85053    -0.99145     4.34028
H      0.60337    -1.23775     1.91776
H     -1.47883    -1.92825     2.97937
H      0.05836    -2.38786     3.74125
C     -0.53081     1.23564    -3.01578
O     -0.70110    -0.12690    -2.63063
H     -0.06815     1.82454    -2.22176
H     -1.42014    -0.14308    -1.95646
H      0.10768     1.26503    -3.89666
H     -1.49121     1.68042    -3.27273
C     -4.90797    -0.07039     2.04026
O     -3.72158    -0.35690     2.75706
H     -5.35617     0.87470     2.35980
H     -3.04797     0.28054     2.48875
H     -4.72383    -0.02351     0.96430
H     -5.62114    -0.87131     2.23610
C      2.44594     4.40901    -1.44256
O      1.65146     3.39534    -0.85714
H      2.46421     4.32793    -2.53341
H      2.11808     2.55062    -0.96429
H      2.01231     5.37184    -1.17710
H      3.47545     4.38082    -1.07430
C      2.20448    -3.26356     0.92785
O      1.31091    -2.18792     0.70713
H      3.24160    -2.94251     0.80843
H      1.37212    -1.91898    -0.22729
H      2.06469    -3.62148     1.94647
H      2.00987    -4.08784     0.23970
C     -2.35466    -1.56182    -0.14379
O     -2.43428    -0.20911    -0.59293
H     -1.35129    -1.81580     0.20414
H     -2.19718     0.36511     0.15867
H     -3.06508    -1.74631     0.65845
H     -2.60003    -2.21116    -0.98322
C      3.12700     0.61641     0.39663
O      2.85005     0.90258    -0.96853
H      2.21590     0.37967     0.94625
H      2.41670     0.12326    -1.34867
H      3.82653    -0.21578     0.48885
H      3.58291     1.49517     0.85004
C      2.04646    -1.98254    -3.00740
O      1.44921    -1.35795    -1.88451
H      2.85174    -2.62748    -2.66214
H      0.60521    -0.92502    -2.19735
H      1.31316    -2.58416    -3.54299
H      2.45536    -1.23381    -3.68782
C     -0.87354     2.32343     1.21272
O     -1.52904     1.12914     1.62716
H     -0.01810     2.11400     0.56935
H     -0.84209     0.52711     2.00049
H     -1.58602     2.92793     0.65496
H     -0.53436     2.89252     2.07737
