 42
-810.6700230276017
C     -3.82452    -1.85051    -0.43485
O     -3.03604    -0.80935     0.10748
H     -4.70118    -1.41868    -0.91406
H     -2.34981    -1.22151     0.67479
H     -3.26090    -2.41866    -1.18107
H     -4.16074    -2.53815     0.34322
C      1.88187     2.96351    -1.92271
O      2.09768     1.69048    -1.33218
H      2.14897     3.73887    -1.20358
H      1.51946     1.04613    -1.80581
H      2.50341     3.08473    -2.81021
H      0.83673     3.09160    -2.20566
C     -0.82110    -3.37288     1.34723
O     -1.12067    -2.00000     1.48532
H     -1.74440    -3.93239     1.20058
H     -0.28505    -1.53320     1.72274
H     -0.16803    -3.55740     0.49027
H     -0.33061    -3.76177     2.24093
C     -1.72288     2.08617    -0.71351
O     -2.01013     0.98500    -1.56365
H     -0.72168     2.01463    -0.28594
H     -2.46320     0.32449    -0.99783
H     -1.79559     3.00435    -1.29566
H     -2.44173     2.13920     0.10373
C      0.39922    -1.23422    -1.63310
O      0.33534    -0.01664    -2.37065
H      0.73589    -2.03148    -2.29442
H     -0.56262     0.35623    -2.23525
H      1.10279    -1.15921    -0.80390
H     -0.57441    -1.50251    -1.22799
C      2.35868    -1.46948     1.87950
O      1.11698    -0.81507     2.06837
H      2.18591    -2.53416     1.70993
H      1.25881     0.12600     1.82072
H      2.89073    -1.05804     1.02080
H      2.98603    -1.35822     2.76545
C      2.61217     2.37219     1.95526
O      1.62080     1.62623     1.27421
H      2.46628     2.25610     3.02850
H      1.82051     1.67421     0.31040
H      3.61667     2.02820     1.69703
H      2.53362     3.43312     1.70976
