 48
-926.4763772850159
C      1.88391    -2.29475     3.46743
O      1.32128    -1.53222     2.41800
H      2.36818    -3.19875     3.09148
H      0.78406    -2.14820     1.86991
H      2.62755    -1.68855     3.98378
H      1.11939    -2.58638     4.18986
C     -2.41940     4.86714    -1.29230
O     -1.32667     3.98403    -1.45453
H     -2.33979     5.44796    -0.36825
H     -1.33824     3.33684    -0.74236
H     -2.41941     5.55779    -2.13479
H     -3.37700     4.33559    -1.28837
C     -1.45668    -3.25087     1.64095
O     -0.20068    -3.17198     0.96885
H     -1.88030    -4.25111     1.54324
H     -0.42047    -2.96111     0.03178
H     -1.30665    -3.03575     2.69958
H     -2.15824    -2.52394     1.22944
C      3.31879    -1.43454    -0.05395
O      3.02839    -0.31867     0.77488
H      4.11026    -2.04198     0.38575
H      2.44807    -0.67180     1.48529
H      2.43525    -2.05817    -0.19366
H      3.66061    -1.07880    -1.02578
C     -2.86789     0.48111    -1.96549
O     -2.46130    -0.16211    -0.76244
H     -2.76199    -0.21144    -2.80366
H     -1.93103     0.49323    -0.26775
H     -3.91596     0.78145    -1.90385
H     -2.25270     1.35988    -2.15848
C      0.04676    -1.75869    -2.20496
O     -0.98993    -2.31190    -1.41133
H      0.43773    -0.83325    -1.77622
H     -1.60676    -1.57902    -1.19467
H      0.85468    -2.48594    -2.27945
H     -0.30489    -1.55963    -3.21768
C     -0.84091     1.68993     1.78371
O     -0.91340     1.69696     0.36353
H     -0.24864     0.84668     2.14364
H      0.01596     1.61977     0.03078
H     -0.39797     2.61981     2.14181
H     -1.85255     1.60784     2.17836
C      2.18067     2.43478    -1.28391
O      1.50326     1.43486    -0.53754
H      1.45699     3.18064    -1.60971
H      2.16244     0.87217    -0.07124
H      2.94437     2.92184    -0.67601
H      2.65417     1.99955    -2.16724
