 36
-694.8437375300875
C     -0.29831     1.86462     2.61878
O     -0.39178     1.23807     1.34599
H     -0.97612     1.35573     3.30168
H      0.45648     1.33937     0.86853
H      0.71633     1.79707     3.01671
H     -0.58419     2.91737     2.55909
C      3.02367     0.78060     0.69745
O      1.93584     1.21498    -0.11060
H      3.12088     1.46343     1.54099
H      1.79171     0.52570    -0.78425
H      2.85109    -0.22984     1.07133
H      3.95547     0.79568     0.13104
C      1.86866    -2.20780    -2.13849
O      1.32599    -1.10112    -1.44121
H      2.26253    -1.85622    -3.09012
H      0.97216    -1.43272    -0.59022
H      2.67725    -2.67350    -1.56903
H      1.10099    -2.95937    -2.33836
C     -0.33852    -2.88998     1.26430
O      0.41200    -1.70306     1.00846
H      0.20040    -3.72619     0.82003
H     -0.06317    -0.94304     1.37214
H     -0.42373    -3.06538     2.33763
H     -1.33167    -2.81608     0.82588
C     -2.56569    -0.88448    -0.85371
O     -2.64338    -0.67059     0.54857
H     -1.54831    -1.13686    -1.16023
H     -2.25188     0.18691     0.73583
H     -3.21673    -1.72298    -1.09729
H     -2.89606    -0.01240    -1.41830
C     -0.70426     2.17624    -2.00543
O     -1.72954     2.44538    -1.06344
H      0.18464     2.78288    -1.82366
H     -1.35288     2.34622    -0.18529
H     -0.41382     1.12451    -2.00172
H     -1.09448     2.42125    -2.99299
