 42
-810.6679923715317
C     -2.51288     2.06391    -2.37975
O     -1.67665     1.16876    -1.67021
H     -3.09773     1.49743    -3.10343
H     -0.95204     1.68579    -1.26287
H     -3.19682     2.57755    -1.70020
H     -1.92789     2.81371    -2.91645
C      2.33962     1.15010     2.11359
O      1.87528     0.70310     0.84940
H      3.29003     0.67448     2.36321
H      1.50050    -0.19023     0.98474
H      2.50199     2.22740     2.07204
H      1.61544     0.93410     2.89824
C      1.33515     3.13770    -1.42943
O      0.45601     2.39463    -0.60464
H      1.98000     3.78718    -0.83337
H      1.00833     1.79563    -0.05247
H      1.96385     2.47416    -2.02892
H      0.74574     3.76256    -2.10062
C      0.79657    -0.92082    -2.52271
O     -0.59664    -1.20593    -2.46265
H      1.35111    -1.83881    -2.32569
H     -1.05792    -0.36420    -2.28691
H      1.07220    -0.56221    -3.51500
H      1.08357    -0.17374    -1.78175
C     -2.27496    -2.21338     0.17325
O     -0.98111    -2.65348    -0.24572
H     -3.02423    -2.96556    -0.07218
H     -0.84349    -2.27481    -1.14433
H     -2.27423    -2.06227     1.25191
H     -2.53592    -1.27456    -0.31681
C      1.86675    -2.66658     1.68313
O      0.86866    -1.71796     1.33795
H      2.75318    -2.13054     2.01979
H      0.19210    -2.14964     0.75039
H      1.51572    -3.31427     2.48656
H      2.13304    -3.27450     0.81785
C     -1.31899     0.83476     2.17759
O     -0.89581    -0.20854     3.03188
H     -1.65774     0.46741     1.20584
H     -0.28093    -0.76637     2.54459
H     -2.15271     1.34266     2.65962
H     -0.53086     1.56816     2.00489
