 60
-1158.0970906058687
C      2.32060    -0.53265    -6.35841
O      1.93849    -1.00961    -5.08301
H      1.45988    -0.41299    -7.02191
H      1.39917    -0.32051    -4.66144
H      2.83289     0.43186    -6.29225
H      3.00481    -1.25331    -6.80558
C      3.91515     1.22993    -3.41619
O      2.91303     1.21888    -2.41385
H      4.88989     1.48189    -2.99103
H      2.94070     0.34114    -1.97680
H      3.98464     0.26639    -3.92070
H      3.66126     1.98932    -4.15708
C     -3.99419     0.48883     4.55443
O     -3.38048     0.10863     3.33606
H     -3.28679     0.44744     5.38575
H     -2.89787    -0.73140     3.49291
H     -4.35721     1.51231     4.46127
H     -4.84162    -0.16087     4.78079
C     -2.01289    -2.87668     4.91638
O     -1.92720    -2.06804     3.75819
H     -3.06386    -3.05872     5.13510
H     -0.97799    -1.87737     3.60244
H     -1.51954    -3.83603     4.75482
H     -1.55236    -2.38667     5.77833
C      0.57273     0.12780     3.62900
O      0.57184    -1.24431     3.23076
H      0.05768     0.75380     2.90162
H      0.83361    -1.26172     2.29621
H      0.05659     0.21213     4.58508
H      1.59315     0.48856     3.75383
C     -0.53355    -1.76517     0.11369
O      0.59330    -0.95019     0.42386
H     -1.26210    -1.19495    -0.46014
H      0.27363    -0.01771     0.35255
H     -0.21501    -2.62749    -0.47388
H     -1.00994    -2.11875     1.02797
C      0.20363     2.61755    -0.17343
O     -0.46118     1.42614     0.23107
H      1.00287     2.37382    -0.87077
H     -1.17186     1.69624     0.85971
H     -0.49663     3.29200    -0.67020
H      0.63161     3.13662     0.68584
C     -0.39210     0.41756    -2.99391
O      0.56723     1.08185    -3.79544
H      0.04774    -0.38891    -2.40601
H      1.34403     1.29670    -3.24355
H     -0.88970     1.10566    -2.31094
H     -1.14004    -0.01886    -3.65525
C      2.54400    -2.34052    -2.11205
O      2.69411    -1.19002    -1.29401
H      3.23720    -2.27072    -2.94641
H      1.98877    -1.19666    -0.62433
H      2.76851    -3.24938    -1.54863
H      1.53764    -2.41086    -2.52632
C     -3.33524     2.97018     1.59668
O     -2.29878     2.07662     1.96144
H     -4.16711     2.44508     1.12414
H     -2.71181     1.34150     2.46773
H     -3.70775     3.50089     2.47456
H     -2.94163     3.70481     0.89437
