 36
-694.8472558713203
C     -0.57909     1.97045    -3.26173
O     -0.06684     0.92187    -2.45339
H     -1.46001     2.42248    -2.80008
H      0.29750     1.28499    -1.63026
H      0.17237     2.74486    -3.42771
H     -0.86658     1.54310    -4.21969
C      2.22171     2.01951     0.57253
O      1.12202     1.24967     0.11418
H      3.12694     1.75941     0.02185
H      1.35716     0.29319     0.21628
H      1.99432     3.07034     0.41140
H      2.39132     1.84810     1.63692
C      0.85318    -1.98858     1.37992
O      1.44566    -1.34173     0.25325
H      1.23096    -1.52470     2.28728
H      1.05517    -1.71169    -0.56135
H     -0.23052    -1.88860     1.36220
H      1.12021    -3.04552     1.39196
C      0.67099    -2.48938    -3.33349
O      0.20820    -1.78750    -2.18925
H      1.70755    -2.80384    -3.19383
H      0.05644    -0.85676    -2.42393
H      0.05255    -3.37368    -3.48836
H      0.61071    -1.86122    -4.22401
C     -2.10917     0.06238     0.16941
O     -1.47150     0.80073     1.20386
H     -1.54378    -0.83550    -0.07942
H     -0.62715     1.13430     0.86879
H     -3.09581    -0.22861     0.52681
H     -2.23137     0.66311    -0.73150
C     -1.58932     0.45405     4.64080
O     -1.04839    -0.37969     3.63685
H     -1.29490     1.49914     4.50500
H     -1.24792     0.03345     2.78227
H     -2.68244     0.40604     4.65705
H     -1.21555     0.11696     5.60703
