 36
-694.8574326344735
C     -2.68720     0.75568    -1.86355
O     -1.57770    -0.08537    -1.58710
H     -3.01812     0.61855    -2.89470
H     -0.77703     0.48001    -1.65680
H     -3.51151     0.49666    -1.19708
H     -2.42893     1.80296    -1.70681
C      3.36949     1.96019     0.11610
O      2.04294     1.55453     0.40280
H      3.72463     1.52038    -0.82057
H      2.08108     0.63854     0.75868
H      3.38688     3.04437     0.02191
H      4.04883     1.67040     0.91756
C      1.63373    -1.76822    -0.02499
O      1.91053    -1.01786     1.15204
H      1.48600    -2.82147     0.21863
H      1.15698    -1.17132     1.76401
H      0.74446    -1.40337    -0.54301
H      2.48825    -1.68910    -0.69654
C     -2.25475    -2.92603     0.06516
O     -2.11213    -1.59415     0.52433
H     -2.58397    -3.55085     0.89403
H     -1.90379    -1.03375    -0.25711
H     -2.99688    -2.99018    -0.73258
H     -1.30525    -3.31567    -0.31266
C      0.35081     2.88655    -2.21615
O      0.45936     1.56163    -1.72914
H      1.29316     3.21362    -2.65798
H      1.04059     1.59289    -0.93794
H     -0.41876     2.91909    -2.98592
H      0.07860     3.57855    -1.41625
C     -0.66126     0.13263     2.93856
O     -0.38642    -1.20152     2.52433
H     -0.50036     0.21532     4.01209
H     -1.06430    -1.42675     1.85316
H      0.00041     0.83480     2.42581
H     -1.69369     0.40153     2.71211
