 36
-694.8465945309175
C     -1.69054     1.35743    -2.28988
O     -1.03218     0.09296    -2.30442
H     -1.51358     1.89371    -1.35928
H     -0.18499     0.16378    -1.83955
H     -1.35628     1.96143    -3.13452
H     -2.75968     1.18190    -2.40203
C      2.46221    -0.32835    -0.09239
O      1.07591    -0.09837    -0.30595
H      2.78091     0.08029     0.86484
H      0.56144    -0.71114     0.27505
H      2.68332    -1.39497    -0.12201
H      3.01605     0.15740    -0.89285
C     -0.20880    -2.98102     1.62873
O     -0.44574    -1.70390     1.06231
H     -1.13411    -3.40684     2.01765
H     -1.22613    -1.77488     0.46362
H      0.21499    -3.66689     0.89176
H      0.49231    -2.86705     2.45236
C      1.18026     3.25435    -0.90899
O      0.50417     2.55033     0.11176
H      0.89932     4.30395    -0.84656
H      0.67601     1.60436    -0.03285
H      2.26473     3.17775    -0.79828
H      0.91159     2.88430    -1.90156
C     -2.38866    -2.96697    -1.57712
O     -2.28976    -1.75838    -0.84186
H     -3.05740    -2.84822    -2.42944
H     -1.96126    -1.07129    -1.46067
H     -1.40896    -3.28859    -1.93947
H     -2.79521    -3.73653    -0.92340
C      1.16400     1.03157     3.27460
O      1.99482     1.91750     2.54904
H      0.80484     0.20363     2.65916
H      1.45554     2.36785     1.88885
H      1.75239     0.62240     4.09505
H      0.29834     1.54752     3.69925
