 36
-694.8487970634637
C     -2.98503     0.30778    -2.80557
O     -1.64678     0.43154    -2.34405
H     -3.60828    -0.21940    -2.07781
H     -1.66640     1.00228    -1.54811
H     -3.42302     1.28953    -2.99286
H     -2.97721    -0.25555    -3.73725
C      3.62830    -0.07929     2.89734
O      2.43717     0.66941     2.77332
H      3.89140    -0.12763     3.95326
H      2.21891     0.71887     1.83399
H      3.50147    -1.10145     2.52537
H      4.45759     0.38289     2.35472
C      1.41714     1.01411    -1.22222
O      1.54291     0.46915     0.08115
H      2.38575     1.42097    -1.50792
H      0.70373     0.05467     0.33946
H      1.13445     0.25119    -1.94643
H      0.67961     1.81442    -1.25137
C      0.40665    -2.52146    -1.72640
O     -0.82940    -1.98287    -1.27848
H      0.39889    -2.67496    -2.80591
H     -1.07042    -1.21811    -1.83815
H      1.23736    -1.86388    -1.46577
H      0.55071    -3.48245    -1.23910
C     -1.11376     2.83413     0.60407
O     -1.73323     1.68645     0.03034
H     -1.16422     3.63936    -0.12732
H     -1.55409     0.92426     0.60476
H     -1.64338     3.14401     1.50588
H     -0.07051     2.62822     0.84728
C     -0.38318    -1.46685     2.20700
O     -0.75683    -0.74412     1.03844
H      0.08007    -0.78118     2.91121
H     -0.87338    -1.36565     0.28380
H     -1.25954    -1.91875     2.67096
H      0.33167    -2.25098     1.95433
