 36
-694.8508049349678
C      1.20991     3.47184    -1.17592
O      1.34211     2.47536    -2.17175
H      0.20356     3.90300    -1.19470
H      1.29618     1.61130    -1.74937
H      1.39387     3.08016    -0.17054
H      1.92201     4.27350    -1.37389
C      1.49916    -0.42840     2.27157
O      1.28821     0.78153     1.54385
H      0.77203    -0.47540     3.08175
H      1.56277     0.62348     0.62654
H      1.36417    -1.29710     1.62496
H      2.50073    -0.44691     2.70238
C      2.44457    -0.74851    -1.88062
O      1.42603    -0.13738    -1.10136
H      3.05977    -1.40651    -1.26243
H      0.72183    -0.80622    -0.94619
H      2.00936    -1.32640    -2.69584
H      3.07254     0.03352    -2.30353
C     -0.31606    -3.37616    -0.88290
O     -0.37165    -1.99605    -0.56128
H      0.67304    -3.77397    -0.64811
H     -1.06148    -1.84842     0.12521
H     -1.05811    -3.93473    -0.31214
H     -0.51383    -3.51596    -1.94598
C     -3.59226    -1.59115     1.20607
O     -2.18455    -1.46535     1.29998
H     -4.08576    -1.10293     2.04781
H     -1.97714    -0.52723     1.51615
H     -3.96637    -1.15302     0.27745
H     -3.84834    -2.64840     1.22125
C     -1.67949     1.64312     0.25896
O     -1.38386     1.05095     1.51931
H     -2.55738     1.15502    -0.16402
H     -0.41063     1.06956     1.62554
H     -1.90788     2.70208     0.38443
H     -0.85077     1.53615    -0.44072
