 42
-810.6585611414276
C     -4.13910     2.28823     0.22525
O     -2.81551     1.84295     0.43908
H     -4.61397     1.76475    -0.61025
H     -2.32025     1.94458    -0.39488
H     -4.71966     2.09127     1.12653
H     -4.17717     3.36262     0.02083
C      4.00415    -0.66292     0.57397
O      2.90268    -0.74039     1.46663
H      4.56593     0.24300     0.79191
H      2.47774    -1.61312     1.32191
H      4.66340    -1.52314     0.69361
H      3.66260    -0.62778    -0.46427
C      1.00819    -3.75719     1.83007
O      1.44367    -2.88799     0.79658
H      0.86187    -4.76681     1.44288
H      0.66138    -2.42734     0.43686
H      1.76764    -3.79405     2.61218
H      0.07200    -3.40736     2.26858
C     -0.22132     2.86000    -1.80729
O     -1.39783     2.07523    -1.86162
H     -0.50914     3.89812    -1.64903
H     -1.16029     1.20809    -2.24442
H      0.43462     2.53571    -0.99856
H      0.32753     2.80872    -2.75051
C      0.79985    -0.52230    -2.69044
O     -0.61057    -0.39673    -2.55747
H      1.30306    -0.23486    -1.76635
H     -0.85968    -0.89405    -1.76573
H      1.07876    -1.54545    -2.94471
H      1.12384     0.13142    -3.49818
C     -1.71050    -1.31084     1.06659
O     -0.61415    -1.21620     0.16464
H     -2.15210    -2.30027     0.96270
H     -0.15225    -0.36569     0.36045
H     -1.37480    -1.18015     2.09642
H     -2.45982    -0.55636     0.84690
C      0.48608     1.80671     1.81250
O      0.86586     0.84421     0.83605
H     -0.55950     2.06751     1.66845
H      1.68424     0.38659     1.13924
H      0.62012     1.41552     2.82290
H      1.08657     2.71250     1.70684
