 42
-810.6685650726229
C     -0.38292     3.34452    -1.00537
O     -0.88545     2.27861    -0.21498
H     -1.13535     3.61287    -1.74592
H     -0.15636     1.98080     0.36103
H     -0.19331     4.22791    -0.39199
H      0.53331     3.05915    -1.52420
C     -2.03684    -0.47133     2.16871
O     -1.22473    -1.63950     2.09278
H     -1.72106     0.12358     3.02541
H     -1.22725    -1.92838     1.15815
H     -1.93657     0.13528     1.26779
H     -3.08554    -0.74050     2.30025
C      2.09947    -0.66557    -1.89329
O      1.80254     0.69280    -1.62261
H      1.27319    -1.32983    -1.62538
H      1.64543     0.80539    -0.67764
H      2.28585    -0.76578    -2.96274
H      3.00240    -0.99700    -1.37142
C     -1.31006     0.43478    -2.98827
O     -1.71964     0.19920    -1.65104
H     -0.22502     0.48397    -3.06304
H     -1.47715     0.99071    -1.12091
H     -1.68180    -0.37379    -3.61784
H     -1.73597     1.36599    -3.36621
C     -1.85932    -3.14634    -1.19234
O     -1.09425    -2.13685    -0.56591
H     -1.83142    -4.04459    -0.57579
H     -1.30835    -1.28304    -1.00600
H     -2.90052    -2.83964    -1.31553
H     -1.44978    -3.39015    -2.17582
C      2.03156     2.36543     1.78265
O      1.22356     1.37544     1.16822
H      1.77252     2.47345     2.83569
H      1.27544     0.54543     1.70995
H      3.08631     2.10204     1.69559
H      1.86240     3.31477     1.27734
C      2.00252    -1.87890     1.67717
O      1.31142    -0.90116     2.45196
H      2.91787    -1.43592     1.28754
H      0.37597    -1.21090     2.49932
H      2.26993    -2.73055     2.30054
H      1.38773    -2.22403     0.84495
