 48
-926.471546736528
C     -1.99266     0.03908     2.53118
O     -1.02305     0.60871     1.66472
H     -1.72195     0.20450     3.57648
H     -1.10699     1.58288     1.65439
H     -2.98135     0.47133     2.35614
H     -2.03209    -1.03199     2.34323
C     -2.52274     0.63143    -1.26158
O     -1.13004     0.34403    -1.14558
H     -3.03865    -0.19981    -1.74748
H     -0.92860     0.07771    -0.22966
H     -2.96914     0.81083    -0.28449
H     -2.65562     1.52062    -1.87829
C      1.47113     2.54368    -0.82221
O      0.09048     2.73327    -1.09864
H      1.65269     1.60447    -0.29951
H     -0.30021     1.85522    -1.28009
H      2.05145     2.56704    -1.74722
H      1.81764     3.37345    -0.20575
C      1.91258    -0.46460    -2.75716
O      2.06730    -1.51335    -1.81736
H      1.73286    -0.90512    -3.73756
H      2.08173    -1.13399    -0.91948
H      1.07198     0.18040    -2.50277
H      2.82203     0.13792    -2.82059
C      0.00130    -3.57942     1.75645
O     -0.32178    -2.46023     0.94996
H     -0.51606    -4.47397     1.40935
H     -0.34246    -2.77184     0.01337
H      1.07651    -3.77676     1.74701
H     -0.31383    -3.36968     2.77806
C      2.15781    -0.05835     1.92424
O      1.68331    -0.66723     0.73712
H      3.15147     0.34884     1.73474
H      0.90511    -1.21964     0.95920
H      1.49631     0.75251     2.23170
H      2.22892    -0.78078     2.74030
C     -0.16467     4.07762     2.02898
O     -1.07958     3.31164     1.26583
H     -0.65905     4.41250     2.93808
H     -0.72221     3.25320     0.35416
H      0.71225     3.48553     2.30782
H      0.17698     4.95538     1.47605
C     -1.04988    -2.67946    -2.48932
O     -0.05701    -3.13662    -1.58513
H     -1.01889    -3.26227    -3.41087
H      0.77747    -2.66305    -1.78743
H     -2.02900    -2.82700    -2.03333
H     -0.92394    -1.62553    -2.72698
