 36
-694.8488750454783
C     -0.03974     2.14426    -0.72033
O     -0.10576     1.34573     0.46200
H      0.84879     1.86795    -1.28598
H     -1.05862     1.27106     0.70269
H     -0.92300     1.97878    -1.33690
H      0.01655     3.19998    -0.45752
C      4.25729     0.67747    -2.07816
O      3.02072     0.12552    -1.66323
H      4.28249     0.67141    -3.16802
H      2.93272     0.24646    -0.70511
H      4.37434     1.71025    -1.73578
H      5.10468     0.09164    -1.70943
C      2.27738    -0.45277     2.00864
O      2.39225     0.58587     1.04736
H      1.58904    -0.17166     2.80806
H      1.51281     0.99532     0.97152
H      1.91916    -1.37036     1.53961
H      3.25892    -0.63411     2.44177
C      0.19709    -1.83701    -1.64872
O     -0.09890    -1.58939    -0.27298
H     -0.46131    -1.25546    -2.29893
H      0.11502    -0.66979    -0.06289
H      1.23164    -1.58476    -1.87230
H      0.03112    -2.89526    -1.83366
C     -3.58602     1.66011    -0.10464
O     -2.70311     1.00064     0.79056
H     -3.26397     2.69358    -0.22280
H     -2.83499     0.03145     0.67474
H     -3.58156     1.17629    -1.08336
H     -4.60357     1.65827     0.28722
C     -2.80371    -2.36833     1.62154
O     -2.68778    -1.64360     0.40547
H     -2.58990    -3.42571     1.46333
H     -1.77120    -1.76881     0.08150
H     -2.11724    -1.98018     2.37860
H     -3.82453    -2.26826     1.98524
