 36
-694.8453186319708
C     -1.91815     0.62281    -2.43545
O     -1.67893     0.47165    -1.04388
H     -2.46888    -0.24781    -2.78365
H     -1.18600     1.27594    -0.72321
H     -2.51006     1.51763    -2.62438
H     -0.97629     0.69469    -2.98211
C      2.42685     0.39450     1.30963
O      1.76297     0.63855     0.07982
H      1.71835     0.09903     2.08679
H      1.29194    -0.18351    -0.15496
H      3.17411    -0.38714     1.19807
H      2.91860     1.31516     1.61631
C      3.82714    -1.61142    -1.48254
O      3.00004    -2.38462    -0.62931
H      3.65063    -1.84217    -2.53653
H      2.08931    -2.27931    -0.91541
H      3.67379    -0.54330    -1.32403
H      4.86116    -1.85591    -1.24529
C     -0.34716    -2.19087     0.69238
O      0.09924    -1.48471    -0.46736
H     -1.20826    -2.81159     0.45005
H     -0.63808    -0.92283    -0.76925
H      0.46912    -2.82699     1.02572
H     -0.62210    -1.50559     1.49461
C     -0.53712     2.70719     1.25239
O     -0.21078     2.41576    -0.10513
H     -1.37215     2.08961     1.58665
H      0.64360     1.93034    -0.09535
H      0.31787     2.51821     1.90227
H     -0.81736     3.75520     1.33194
C     -4.18361     0.45212     1.58238
O     -2.95217    -0.23171     1.44443
H     -4.46717     0.42776     2.63369
H     -2.62978    -0.08943     0.54592
H     -4.09761     1.49875     1.27235
H     -4.97799    -0.02062     0.99805
