 36
-694.8533832291065
C      1.15325     2.73762    -0.84146
O      1.13000     1.63405     0.04596
H      0.36385     2.64768    -1.59089
H      1.24044     0.81368    -0.50009
H      0.99467     3.64613    -0.26642
H      2.11626     2.80175    -1.34791
C      2.07733    -1.59536    -0.63328
O      1.21841    -0.63800    -1.23471
H      2.07169    -2.53110    -1.19378
H      0.32785    -1.04632    -1.34010
H      3.09514    -1.20951    -0.64145
H      1.78846    -1.79651     0.39959
C      3.67699     0.47712     2.40321
O      2.28342     0.23138     2.33972
H      4.16436     0.27262     1.44515
H      1.90498     0.83521     1.68738
H      3.89863     1.50933     2.68977
H      4.10321    -0.18685     3.15451
C     -3.33058     1.04109    -1.69998
O     -3.07162     0.04152    -0.72620
H     -3.68024     1.95927    -1.22671
H     -2.55884     0.47294    -0.00925
H     -2.43325     1.27042    -2.28066
H     -4.10404     0.67817    -2.37168
C     -1.43144    -2.99220    -0.86368
O     -1.18965    -1.71548    -1.42640
H     -1.70330    -2.91846     0.19167
H     -1.96153    -1.13998    -1.22594
H     -2.23376    -3.50568    -1.39477
H     -0.52561    -3.59252    -0.94620
C     -1.04870    -0.03063     1.94058
O     -1.34996     1.04302     1.05037
H     -0.55180    -0.85012     1.42035
H     -0.50422     1.37619     0.70280
H     -0.40619     0.30429     2.75344
H     -1.98469    -0.39281     2.36485
