 42
-810.6673387117326
C     -3.21722     1.37910     2.31015
O     -3.04750     0.04786     1.87538
H     -3.13928     1.46346     3.39890
H     -2.17442    -0.23457     2.17074
H     -2.48068     2.05301     1.86083
H     -4.21083     1.71266     2.01172
C      1.77249     1.48396     1.08691
O      0.41598     1.88730     1.27300
H      2.36071     1.69295     1.98184
H     -0.02132     1.20036     1.80079
H      1.84913     0.42184     0.84862
H      2.19238     2.05406     0.25963
C      2.62941    -2.56270    -2.06061
O      2.25711    -1.48968    -1.21397
H      2.91451    -3.41294    -1.44254
H      1.88359    -0.78248    -1.77947
H      1.80263    -2.86042    -2.70984
H      3.48243    -2.28973    -2.68473
C      1.37929     0.96605    -3.90006
O      1.03625     0.39678    -2.65103
H      0.48351     1.24937    -4.45612
H      0.45883     1.03582    -2.16933
H      2.00373     1.85157    -3.76766
H      1.92996     0.22823    -4.48189
C     -1.87359     1.72682    -1.21094
O     -0.48337     2.02096    -1.25515
H     -2.20783     1.46598    -2.21346
H     -0.18462     2.09870    -0.32491
H     -2.09537     0.89931    -0.53488
H     -2.42964     2.60491    -0.88370
C      0.33299    -0.81150     3.65832
O     -0.39339    -0.54270     2.47511
H      1.38221    -0.53836     3.53427
H     -0.06878    -1.16540     1.77295
H     -0.09755    -0.22181     4.46386
H      0.27261    -1.86875     3.91488
C     -0.79507    -2.08257    -0.39474
O      0.31624    -2.08305     0.50415
H     -0.62363    -1.40414    -1.23192
H      1.11249    -1.91105    -0.04608
H     -0.96882    -3.08816    -0.77826
H     -1.68594    -1.76196     0.14537
