 36
-694.8506024830741
C     -0.25945     1.89036     0.93684
O      0.88416     1.05504     0.76418
H     -0.65539     1.73744     1.94003
H      1.05224     1.00908    -0.20423
H      0.01390     2.93960     0.82627
H     -1.03448     1.65064     0.20698
C      1.37340     2.17840    -2.54690
O      0.96355     0.99149    -1.88842
H      0.61207     2.95760    -2.46819
H      0.03452     0.80714    -2.15439
H      2.29177     2.53863    -2.08564
H      1.57172     1.98732    -3.60348
C      2.72406    -0.80473     3.41982
O      2.57734     0.57753     3.17644
H      1.80421    -1.35527     3.20851
H      2.19179     0.69589     2.30367
H      3.53826    -1.23233     2.82581
H      2.96799    -0.93802     4.47271
C     -3.33482    -0.71843     0.63926
O     -2.31323    -1.09371    -0.26910
H     -4.22592    -0.45978     0.07075
H     -1.52746    -1.35471     0.25733
H     -3.57409    -1.54096     1.31435
H     -3.03636     0.14474     1.23967
C     -1.78511    -0.42479    -3.51745
O     -1.58876     0.38117    -2.36199
H     -1.99737    -1.45584    -3.23427
H     -1.93225    -0.12425    -1.59193
H     -2.61499    -0.03795    -4.11056
H     -0.88082    -0.40947    -4.12920
C      0.91060    -2.21631     0.32390
O     -0.03972    -1.51542     1.12020
H      1.11957    -1.68618    -0.60716
H      0.31256    -0.61353     1.23049
H      1.84468    -2.34991     0.86820
H      0.50366    -3.19789     0.08928
