 60
-1158.0927336823593
C      4.40550    -1.82958    -4.48357
O      3.26576    -1.55273    -3.69270
H      4.30349    -2.84114    -4.87688
H      3.35140    -0.67349    -3.30300
H      4.49331    -1.14052    -5.32934
H      5.32972    -1.78160    -3.89811
C     -3.64325     1.85764     3.72738
O     -2.71877     0.82091     3.47904
H     -4.55220     1.49269     4.21528
H     -3.19113     0.10826     3.01895
H     -3.17686     2.59127     4.38344
H     -3.93289     2.36491     2.80047
C     -2.36551     1.56714    -0.35722
O     -1.05355     1.95910    -0.76789
H     -2.67466     0.68077    -0.90912
H     -0.57825     2.28675     0.02697
H     -2.39715     1.34241     0.70550
H     -3.07093     2.37040    -0.57043
C     -5.16114    -0.65026     1.19276
O     -4.03845    -1.04652     1.95657
H     -5.59055    -1.49590     0.65095
H     -3.33180    -1.31720     1.34277
H     -5.91655    -0.25622     1.87116
H     -4.89555     0.13023     0.47520
C      3.31062    -1.43802    -0.06041
O      1.90496    -1.36782     0.17035
H      3.73427    -0.44215    -0.19271
H      1.48479    -0.90086    -0.57636
H      3.76995    -1.91251     0.80492
H      3.52318    -2.03308    -0.94729
C     -1.31200    -2.81644     0.39404
O     -1.79654    -1.48247     0.47028
H     -1.83941    -3.32776    -0.40928
H     -1.13228    -0.93867     0.92427
H     -0.24390    -2.84193     0.18126
H     -1.50065    -3.35383     1.32456
C     -0.17384    -0.74692    -2.58422
O      0.51879     0.12142    -1.69542
H     -0.68858    -0.17667    -3.35698
H     -0.10287     0.83507    -1.37809
H      0.54628    -1.40904    -3.06414
H     -0.90499    -1.33428    -2.03039
C      0.25615    -0.89122     3.30337
O      0.33437    -0.35752     1.99039
H     -0.11896    -1.91582     3.28315
H      1.04909    -0.80276     1.47302
H      1.23399    -0.88046     3.78567
H     -0.43421    -0.27865     3.87528
C      1.80877     2.50938     1.01333
O      0.46680     2.27676     1.40684
H      2.17754     1.74049     0.33255
H      0.40808     1.36429     1.74794
H      1.85426     3.47095     0.50227
H      2.47287     2.55555     1.87855
C      2.95755     2.31758    -2.85926
O      3.02210     1.01577    -2.30425
H      3.96950     2.71277    -2.92429
H      2.10591     0.75558    -2.10718
H      2.52087     2.29741    -3.86081
H      2.36280     2.98736    -2.23284
