 42
-810.6663696326915
C     -4.02366    -0.41758    -0.49335
O     -3.14024    -0.03791     0.54357
H     -4.82290     0.31876    -0.55706
H     -2.46187    -0.73687     0.64074
H     -3.50796    -0.46023    -1.45682
H     -4.46836    -1.39569    -0.29700
C      2.12273    -1.56682     2.08085
O      1.04915    -0.70780     1.71442
H      2.47663    -2.14047     1.22497
H      1.41254     0.00854     1.16270
H      2.95498    -0.99186     2.48900
H      1.76809    -2.24805     2.85332
C     -1.16368    -3.17119     1.11089
O     -1.13822    -1.80953     0.72853
H     -0.40396    -3.73417     0.56569
H     -0.33580    -1.41140     1.13083
H     -0.98161    -3.28544     2.18057
H     -2.14180    -3.58861     0.87499
C     -1.22587     2.47426     1.62113
O     -1.88749     2.33326     0.36935
H     -0.53101     3.31144     1.55576
H     -2.44940     1.53277     0.43820
H     -1.94413     2.68438     2.41407
H     -0.66962     1.57163     1.88187
C     -0.55044     0.76147    -2.18544
O     -0.01050     1.88383    -1.49094
H     -1.42152     1.05937    -2.76845
H     -0.71104     2.19466    -0.87081
H      0.20222     0.37942    -2.87458
H     -0.84108    -0.03989    -1.50268
C      3.06413     2.14154    -0.05690
O      2.04043     1.16220    -0.04906
H      3.84848     1.82523     0.62647
H      1.30887     1.48318    -0.63984
H      3.48016     2.24761    -1.05901
H      2.67083     3.10459     0.26933
C      1.97482    -1.98621    -1.66447
O      3.05087    -1.23845    -1.13965
H      1.03218    -1.79292    -1.14600
H      2.70997    -0.37912    -0.86510
H      1.83403    -1.78519    -2.73056
H      2.21115    -3.04456    -1.55777
