 24
-463.2205011125447
C      1.86847     1.17832     1.26255
O      1.50110     0.25059     2.29245
H      2.81247     1.66868     1.50310
H      2.24904    -0.32051     2.46768
H      1.94265     0.68140     0.29590
H      1.08391     1.92787     1.20814
C     -0.27889     2.33156    -2.20160
O     -0.44613     1.58253    -1.01295
H     -0.65414     3.33971    -2.02408
H     -0.23236     0.65394    -1.19504
H      0.77459     2.40309    -2.49132
H     -0.83724     1.89918    -3.03735
C     -1.85739    -0.56428     1.46821
O     -0.60548    -1.22018     1.29422
H     -2.06277    -0.40242     2.52665
H      0.06530    -0.69173     1.76278
H     -1.87153     0.39403     0.94647
H     -2.63071    -1.20935     1.05569
C     -0.41422    -2.19860    -2.07791
O      0.14773    -1.18234    -1.27029
H     -0.24112    -3.18735    -1.64673
H     -0.12528    -1.35479    -0.34588
H     -1.49163    -2.05528    -2.20054
H      0.05877    -2.15931    -3.05814
