 48
-926.481453245329
C     -0.66078    -1.53516     2.11049
O      0.29394    -2.11605     1.22621
H     -1.48245    -1.07666     1.56104
H     -0.20530    -2.42620     0.44211
H     -1.05758    -2.29340     2.78718
H     -0.16483    -0.76915     2.70863
C      1.20593     0.24220    -1.58970
O      0.10574     1.13631    -1.74695
H      1.72151     0.13546    -2.54312
H      0.20200     1.83636    -1.06259
H      1.90942     0.59900    -0.84002
H      0.85661    -0.74365    -1.28296
C     -2.96669     1.13419     0.55453
O     -3.53095    -0.06775     0.06591
H     -3.51815     2.00589     0.19554
H     -3.18949    -0.20018    -0.82541
H     -3.01846     1.12017     1.64410
H     -1.91664     1.24343     0.27141
C     -1.81788    -0.68875    -3.65557
O     -1.91687    -0.44727    -2.25769
H     -1.88333    -1.75993    -3.84101
H     -1.24770     0.24998    -2.05071
H     -2.63202    -0.18843    -4.17804
H     -0.86507    -0.32048    -4.02962
C     -2.46130    -3.37064    -0.48511
O     -1.26887    -2.69309    -0.86348
H     -2.98134    -3.76405    -1.36085
H     -1.52989    -1.89352    -1.35934
H     -2.19206    -4.21044     0.15383
H     -3.13197    -2.70883     0.06304
C      2.23436     2.12163     3.09008
O      2.46120     1.87419     1.70891
H      1.53589     2.95308     3.19801
H      2.55185     0.90084     1.61450
H      1.80571     1.23782     3.56484
H      3.16914     2.37952     3.59071
C      0.98970     4.16636    -0.35624
O      0.56668     2.91527     0.15993
H      2.00842     4.10635    -0.74621
H      1.27947     2.58423     0.75198
H      0.32126     4.45439    -1.16664
H      0.95235     4.93711     0.41593
C      3.57362    -1.45464     0.83700
O      2.52523    -0.75154     1.48035
H      3.71029    -2.44011     1.28449
H      1.70285    -1.28200     1.35826
H      3.36356    -1.58412    -0.22747
H      4.49683    -0.88706     0.94858
