 36
-694.8536417236827
C      2.76628     1.04369    -1.40750
O      1.60142     0.50491    -0.81280
H      2.55823     1.36996    -2.42900
H      0.96287     1.24853    -0.64786
H      3.13956     1.89149    -0.83298
H      3.53035     0.26929    -1.43386
C     -1.09468     2.58439    -1.56291
O     -0.31098     2.20357    -0.44192
H     -1.90704     3.24495    -1.25823
H     -0.92043     1.78278     0.21189
H     -0.45792     3.12945    -2.25786
H     -1.51595     1.71601    -2.06893
C      0.40656     0.02835     3.78047
O     -0.32584    -0.69703     2.80575
H     -0.27582     0.33628     4.57013
H      0.32995    -1.10002     2.19906
H      1.18909    -0.59147     4.22039
H      0.87054     0.91627     3.34301
C     -0.27486    -1.32114    -3.47802
O     -0.64481    -0.89779    -2.17821
H     -1.15370    -1.75137    -3.95609
H      0.11560    -0.48586    -1.74686
H      0.07570    -0.48450    -4.09201
H      0.51055    -2.08313    -3.45124
C     -2.75348    -0.05892     0.58729
O     -1.85227     0.83667     1.22630
H     -3.28566    -0.66344     1.32180
H     -1.34204     0.31080     1.88143
H     -3.48577     0.52007     0.02636
H     -2.22063    -0.71930    -0.09934
C      1.03114    -2.67503     0.27265
O      1.48608    -1.53741     0.99142
H      0.03351    -2.51044    -0.13888
H      1.60826    -0.80805     0.35827
H      1.71355    -2.91865    -0.54372
H      0.99658    -3.52248     0.95532
