 36
-694.8490453784838
C     -1.50967     2.65895    -0.86607
O     -0.68381     1.92700    -1.75453
H     -0.97214     3.48752    -0.39667
H      0.14084     1.73365    -1.28745
H     -2.33993     3.07379    -1.43616
H     -1.91267     2.01265    -0.08257
C      3.01608     1.43071    -0.30865
O      1.61075     1.22688    -0.30615
H      3.27598     2.07740    -1.14248
H      1.34644     1.00267     0.62734
H      3.33074     1.90001     0.62223
H      3.53626     0.47605    -0.40983
C     -0.28594    -2.88527     1.88175
O      0.83957    -2.16881     1.38073
H     -0.35256    -3.87340     1.42421
H      0.76829    -2.10130     0.41692
H     -0.14479    -3.00951     2.95400
H     -1.21018    -2.34057     1.69757
C      0.34066    -1.26135    -2.73573
O      0.67046    -1.20821    -1.34793
H      1.23683    -1.41317    -3.33866
H      1.16047    -0.38540    -1.18396
H     -0.32988    -2.10519    -2.88154
H     -0.16187    -0.34546    -3.04769
C     -0.18854     0.78148     2.71110
O      1.02909     0.40211     2.07839
H     -0.26057     0.33543     3.70335
H      1.00908    -0.57316     1.95463
H     -0.19127     1.86406     2.82270
H     -1.05199     0.48042     2.11657
C     -3.03573    -0.45929    -0.94885
O     -2.01523    -0.74586    -0.00296
H     -3.89422    -0.05524    -0.41168
H     -1.17370    -0.80764    -0.46783
H     -2.69832     0.27595    -1.68112
H     -3.35722    -1.36496    -1.47160
