 48
-926.4782259218031
C     -0.92826     0.70744     3.54595
O     -0.80190    -0.44948     2.73107
H     -0.17720     0.65934     4.33239
H     -1.54802    -0.45523     2.10484
H     -0.77846     1.61757     2.96405
H     -1.91549     0.74705     4.00914
C      1.21057    -0.67225    -3.06187
O      0.43440     0.14183    -2.18760
H      1.85395    -1.35722    -2.50946
H      1.04585     0.58320    -1.56469
H      0.53120    -1.25604    -3.68383
H      1.83153    -0.05715    -3.71320
C     -2.59982    -1.29624    -2.58366
O     -1.78689    -1.10931    -1.43868
H     -2.71411    -0.36911    -3.14887
H     -0.96859    -0.64583    -1.72764
H     -2.17101    -2.05718    -3.23782
H     -3.58732    -1.63417    -2.26927
C     -2.06524     2.62986    -0.52138
O     -2.20139     2.36763     0.86248
H     -1.59227     1.80252    -1.05604
H     -2.54924     1.47372     0.95709
H     -3.03082     2.84116    -0.98703
H     -1.43333     3.51201    -0.64182
C     -3.86436    -1.30217     1.14047
O     -2.78038    -0.43492     0.86064
H     -4.66986    -1.14931     0.42172
H     -2.41656    -0.69458    -0.02514
H     -3.54450    -2.34439     1.09821
H     -4.23812    -1.08693     2.13988
C      1.51473     2.45791     0.16784
O      2.05027     1.22788    -0.30562
H      0.51071     2.31802     0.57356
H      1.94773     0.57198     0.42741
H      2.15730     2.87662     0.94094
H      1.47034     3.15640    -0.66627
C      1.40723    -1.86916     0.70720
O      1.51957    -0.66192     1.45877
H      0.54719    -1.84205     0.03734
H      0.69958    -0.58470     1.99928
H      2.30922    -2.00530     0.11384
H      1.29599    -2.72475     1.37298
C      4.88687    -0.70038    -0.23108
O      4.12994    -0.44513    -1.39946
H      5.46942    -1.60617    -0.39762
H      3.54223     0.29263    -1.19987
H      5.57577     0.11931    -0.01169
H      4.24514    -0.85400     0.64084
