 48
-926.4804984617657
C     -0.18339    -0.65120     1.67664
O     -0.23142    -2.06137     1.49719
H     -0.07013    -0.12143     0.73057
H     -1.14375    -2.25715     1.18209
H     -1.09853    -0.29210     2.14700
H      0.66374    -0.39927     2.31450
C     -1.37054     2.43671    -2.19466
O     -1.47847     1.75431    -0.95612
H     -2.07529     2.00046    -2.90195
H     -0.82587     2.16936    -0.34922
H     -1.60516     3.49557    -2.07768
H     -0.36472     2.34732    -2.60983
C     -3.67421    -0.49465    -2.18515
O     -3.28732    -0.18214    -0.85970
H     -4.29309    -1.38971    -2.16279
H     -2.64123     0.55214    -0.89003
H     -4.25936     0.31809    -2.61945
H     -2.80651    -0.68942    -2.82053
C      1.45981    -0.26929    -2.18775
O      2.47106    -0.45462    -1.21011
H      1.30797    -1.17690    -2.77065
H      2.29890    -1.32810    -0.78797
H      0.50872     0.01485    -1.73243
H      1.78212     0.52026    -2.86684
C     -3.56727    -2.03130     1.85464
O     -2.72911    -2.21115     0.72198
H     -2.99989    -2.25093     2.75997
H     -2.94166    -1.48170     0.09811
H     -3.92576    -1.00202     1.90501
H     -4.42476    -2.70393     1.80607
C      2.85138    -3.21516     0.90965
O      1.86820    -2.73697     0.00634
H      3.66622    -3.65422     0.33822
H      1.04625    -2.59067     0.52764
H      3.24817    -2.40453     1.52729
H      2.43860    -3.98052     1.56782
C      0.10341     3.14397     1.94836
O      0.36039     2.84933     0.58681
H      0.89988     3.75587     2.37564
H      1.25349     2.43277     0.52891
H     -0.83355     3.69442     2.01677
H      0.02090     2.22549     2.53290
C      3.85730     2.37899     0.05131
O      2.69213     1.64602     0.39425
H      3.84108     3.33235     0.57823
H      2.66966     0.84441    -0.17710
H      4.75459     1.83369     0.34752
H      3.90228     2.57239    -1.02307
