 42
-810.6683516694377
C     -2.09140     2.19335    -0.62626
O     -2.33908     0.87039    -1.08617
H     -1.22600     2.60379    -1.14955
H     -2.43439     0.30477    -0.29025
H     -2.95520     2.82338    -0.84100
H     -1.88865     2.20129     0.44265
C     -2.91785     0.05633     2.28095
O     -2.39887    -0.59155     1.13328
H     -2.25575     0.86132     2.59690
H     -1.52018    -0.96284     1.35726
H     -3.89604     0.47012     2.03747
H     -3.04542    -0.65112     3.10343
C      2.75792     0.75668    -2.74922
O      1.93620    -0.01553    -1.88801
H      3.74913     0.83993    -2.30531
H      1.02171     0.00212    -2.26858
H      2.85008     0.27220    -3.72224
H      2.34721     1.75786    -2.88950
C     -0.97749    -1.34086    -3.13236
O     -0.53785    -0.03598    -2.78358
H     -0.10816    -1.99440    -3.23484
H     -1.23011     0.35229    -2.19239
H     -1.63295    -1.74978    -2.36150
H     -1.51678    -1.32264    -4.07976
C      0.06063    -2.59948     0.33333
O      0.02107    -1.71210     1.44514
H     -0.94632    -2.97769     0.15179
H      0.76519    -1.09519     1.33029
H      0.40949    -2.09286    -0.56925
H      0.71505    -3.44809     0.54059
C      3.26616    -0.32958     1.14705
O      1.97513     0.03323     0.69269
H      4.03421     0.14333     0.53778
H      1.98440     0.02357    -0.30004
H      3.38116     0.00490     2.17559
H      3.40287    -1.41120     1.10606
C      0.40757     1.24350     3.36344
O      0.11989     1.64194     2.03965
H      1.43688     1.48167     3.64717
H      0.75824     1.20796     1.46133
H     -0.25445     1.78869     4.03730
H      0.24316     0.17288     3.51638
