 60
-1158.0877241647804
C     -4.60465     0.46278    -5.42412
O     -3.43705     0.15891    -4.68723
H     -5.05164    -0.43502    -5.86139
H     -3.69317    -0.27325    -3.86066
H     -5.35867     0.95993    -4.80656
H     -4.32777     1.13711    -6.23451
C      3.63332     2.37407     2.26197
O      3.46513     0.96869     2.29925
H      4.68955     2.60112     2.38667
H      2.53020     0.78545     2.07792
H      3.30386     2.78677     1.30752
H      3.07565     2.86993     3.06047
C      2.50729     1.10695    -1.39087
O      1.49103     1.24754    -2.37588
H      3.17732     1.96706    -1.41653
H      0.71857     1.66072    -1.94822
H      2.09027     1.01145    -0.38777
H      3.09356     0.21635    -1.61296
C      0.03886     1.74062     2.21609
O      0.78450     0.53224     2.12769
H      0.12045     2.27107     1.27151
H      0.68781     0.08374     3.00021
H     -1.01333     1.52916     2.40315
H      0.41522     2.38056     3.01597
C      4.31212    -1.14194     4.97653
O      3.48533     0.00141     4.83894
H      3.93076    -1.75218     5.79494
H      3.64966     0.38480     3.95275
H      4.31000    -1.73890     4.06203
H      5.33854    -0.85723     5.21197
C     -1.08334    -1.66815     0.27935
O     -1.50053    -1.02202    -0.91356
H     -0.09782    -1.32040     0.58619
H     -0.80501    -1.19156    -1.60634
H     -1.79474    -1.44433     1.07246
H     -1.05172    -2.74605     0.12111
C     -4.14657    -2.49490    -2.01540
O     -3.85076    -1.11915    -2.18394
H     -5.21195    -2.61503    -1.81764
H     -3.02284    -0.95924    -1.69813
H     -3.89006    -3.05492    -2.91839
H     -3.58487    -2.91512    -1.17968
C     -0.23333    -1.26892    -4.07318
O      0.31637    -1.15834    -2.75999
H      0.56268    -1.30335    -4.81647
H      0.83508    -0.32273    -2.71025
H     -0.79905    -2.19861    -4.12924
H     -0.90451    -0.44031    -4.29942
C      0.74124    -1.91310     4.69125
O      0.85879    -0.50420     4.58053
H      0.42838    -2.19161     5.69844
H      1.77625    -0.27170     4.83879
H     -0.01488    -2.26635     3.98809
H      1.68729    -2.40411     4.46085
C     -1.80970     2.19955    -1.99598
O     -0.82908     1.79472    -1.04115
H     -2.80895     2.17959    -1.56002
H     -1.07038     0.91106    -0.72713
H     -1.58296     3.22222    -2.29609
H     -1.80832     1.56436    -2.88071
