 24
-463.22932123853906
C      2.31807     0.87584     1.08164
O      1.75250     0.47857    -0.15471
H      3.18836     0.26629     1.32651
H      1.48959    -0.46312    -0.06368
H      2.63451     1.91411     0.99772
H      1.59149     0.79219     1.89479
C     -0.75838     2.88292    -0.17462
O     -0.60092     1.60581    -0.76325
H     -1.73436     3.27187    -0.45615
H      0.32309     1.31302    -0.61070
H     -0.70207     2.82857     0.91570
H      0.00695     3.57707    -0.52823
C     -2.44144    -0.47626     1.13065
O     -1.79376    -0.72864    -0.10433
H     -2.96966    -1.37721     1.43215
H     -1.49030     0.13446    -0.45079
H     -1.72226    -0.20877     1.91058
H     -3.16316     0.33654     1.03481
C      0.82173    -2.78334    -1.02392
O      0.61914    -1.94408     0.10336
H      0.19259    -3.67223    -0.96302
H     -0.31743    -1.65677     0.09083
H      0.60001    -2.25720    -1.95557
H      1.86453    -3.09422    -1.03246
