 54
-1042.2842458340858
C     -2.01160    -3.81738    -1.20201
O     -1.91372    -2.47605    -0.75772
H     -1.15199    -4.05409    -1.83471
H     -2.23076    -2.46054     0.16627
H     -2.02467    -4.51978    -0.36549
H     -2.91851    -3.96790    -1.79432
C      0.95783     2.51716    -4.46882
O      1.06482     2.59739    -3.05613
H      1.71687     3.13605    -4.94819
H      1.91163     2.16446    -2.80443
H      1.07678     1.48693    -4.81167
H     -0.02395     2.87816    -4.76986
C      1.43080    -1.85338    -1.33567
O      1.53481    -0.50868    -0.87173
H      1.57851    -1.90256    -2.41775
H      0.67743    -0.07293    -0.97742
H      2.21230    -2.43804    -0.85274
H      0.46143    -2.27751    -1.08665
C      4.23768     1.69595    -1.48815
O      3.15681     1.16863    -2.23669
H      3.98610     1.77083    -0.42802
H      2.71235     0.47109    -1.71331
H      5.12634     1.07160    -1.59402
H      4.46609     2.69340    -1.86265
C     -3.64389    -1.58350     2.27407
O     -2.71033    -2.55622     1.82440
H     -4.23809    -1.98091     3.09835
H     -1.91104    -2.43744     2.38025
H     -3.13234    -0.67969     2.60850
H     -4.31393    -1.33142     1.45235
C      0.64496    -2.11379     2.48579
O     -0.53823    -1.84421     3.21831
H      0.62821    -1.65687     1.49270
H     -0.61299    -0.87452     3.32272
H      1.52345    -1.74991     3.02058
H      0.73268    -3.19304     2.37176
C     -1.56596     0.57219    -2.36511
O     -0.66785     1.31581    -1.54571
H     -1.02388     0.01776    -3.13296
H     -0.10457     1.86325    -2.14181
H     -2.10343    -0.13224    -1.73937
H     -2.27781     1.24113    -2.84731
C      1.18334     2.31441     0.87122
O     -0.20812     2.05902     1.01864
H      1.40097     2.73801    -0.10793
H     -0.55176     1.81273     0.14258
H      1.49437     3.02020     1.64045
H      1.75724     1.39284     0.98245
C     -0.82584     1.85231     4.26798
O     -0.80551     0.82870     3.28996
H      0.14860     1.93401     4.75468
H     -0.61539     1.25983     2.43174
H     -1.07231     2.81430     3.81775
H     -1.57947     1.61381     5.01654
