 48
-926.4794469907943
C     -1.31405    -2.19819     2.83765
O     -0.79147    -0.94903     2.40988
H     -1.44174    -2.88456     1.99869
H     -1.38310    -0.62999     1.70349
H     -0.61822    -2.63851     3.54950
H     -2.27460    -2.06934     3.34055
C     -1.15922     2.03673    -2.17206
O     -1.50590     1.92069    -0.79546
H     -0.28880     1.42616    -2.40202
H     -0.81616     2.40547    -0.27880
H     -2.00749     1.70448    -2.76974
H     -0.94796     3.07506    -2.42454
C     -3.68755    -0.22199     0.44230
O     -2.28291    -0.25465     0.28601
H     -4.05905    -1.23410     0.59483
H     -1.99871     0.59962    -0.15587
H     -3.95655     0.39106     1.30284
H     -4.15813     0.19513    -0.44715
C      1.55450    -1.10956    -2.27256
O      1.32527    -0.08892    -1.32352
H      2.61986    -1.34151    -2.35563
H      1.34925    -0.46941    -0.42054
H      1.01007    -2.01623    -2.01484
H      1.20614    -0.76210    -3.24555
C     -1.69281    -2.68400    -2.03734
O     -1.19780    -2.56772    -0.71995
H     -1.28632    -3.59061    -2.48657
H     -1.52087    -1.72697    -0.36281
H     -2.78406    -2.75430    -2.06383
H     -1.39367    -1.83367    -2.66043
C      1.80674    -2.55285     1.10657
O      1.54265    -1.16024     1.12629
H      1.07656    -3.08476     0.49654
H      0.74795    -1.02580     1.68569
H      2.80382    -2.71591     0.69847
H      1.78804    -2.97081     2.11407
C      0.68634     2.39980     1.77322
O      0.48584     3.06615     0.52988
H     -0.23065     1.89793     2.08160
H      1.30151     2.94037     0.00423
H      1.48058     1.65898     1.69282
H      0.95338     3.12572     2.54229
C      3.69730     1.81767    -0.11846
O      2.60510     2.23053    -0.92644
H      3.80325     2.50006     0.72628
H      2.16142     1.41558    -1.23332
H      3.53183     0.80873     0.26436
H      4.62625     1.83262    -0.69035
