 60
-1158.0892611307545
C      1.29365    -3.36063    -1.78598
O      0.14590    -2.62981    -1.35147
H      1.10115    -4.43585    -1.77052
H      0.05330    -2.69678    -0.39358
H      1.50789    -3.06245    -2.81126
H      2.15260    -3.13677    -1.15769
C      1.39213     5.81472    -0.77710
O      1.41326     4.39893    -0.74446
H      0.40372     6.18518    -1.05713
H      0.63081     4.11514    -0.23083
H      1.65900     6.23522     0.19648
H      2.11429     6.15264    -1.51838
C      4.45308     2.45212    -0.54752
O      3.32125     2.60893     0.28492
H      4.16624     2.27413    -1.58878
H      2.74454     3.27983    -0.11051
H      5.10958     3.32557    -0.50971
H      5.01783     1.58602    -0.20000
C      0.21720     0.83319    -1.06074
O     -0.89426     0.92919    -0.16929
H      0.31090    -0.16846    -1.47629
H     -0.72391     0.33426     0.57840
H      0.06233     1.53435    -1.87926
H      1.15260     1.09992    -0.57399
C     -1.56997    -4.28952     1.56498
O     -1.48605    -2.90267     1.26008
H     -2.59841    -4.56757     1.78712
H     -2.31261    -2.66078     0.76626
H     -1.21971    -4.87875     0.71695
H     -0.94554    -4.49152     2.43182
C     -0.23125    -0.56679     3.34987
O     -0.12702    -0.79840     1.95676
H      0.30756     0.34728     3.59287
H     -0.63720    -1.62239     1.78709
H     -1.27488    -0.45383     3.65007
H      0.21187    -1.39061     3.91254
C     -2.37975    -0.76038    -3.07888
O     -2.32123    -2.05505    -2.50334
H     -2.11957     0.00927    -2.35051
H     -1.40873    -2.23631    -2.22298
H     -1.70884    -0.68269    -3.93593
H     -3.39655    -0.58864    -3.42594
C     -4.13894    -0.99447     0.13999
O     -3.59270    -2.27648    -0.15380
H     -4.97018    -0.76933    -0.52638
H     -3.27420    -2.26022    -1.08264
H     -4.51053    -1.01036     1.16165
H     -3.38623    -0.21027     0.04833
C      3.21772    -0.84519     0.28210
O      2.40911    -1.80653     0.93712
H      2.99844    -0.80168    -0.79073
H      1.64242    -1.36103     1.31124
H      3.09567     0.15691     0.69287
H      4.26333    -1.13333     0.39611
C      0.00900     3.09502     2.05065
O     -0.60067     3.44277     0.81430
H     -0.69182     2.56096     2.69412
H     -0.89571     2.60176     0.41396
H      0.89899     2.47832     1.90358
H      0.30273     4.01295     2.55721
