 60
-1158.0968538301288
C     -1.06260    -4.32766    -1.34479
O     -0.53854    -3.03825    -1.07144
H     -0.92970    -4.53047    -2.40755
H     -0.79138    -2.78639    -0.17380
H     -0.54030    -5.10300    -0.77726
H     -2.13109    -4.38765    -1.11550
C     -0.26704     3.37551    -2.05996
O     -0.16351     2.05367    -1.55818
H     -0.45099     3.36388    -3.13357
H     -1.01960     1.57115    -1.75840
H     -1.08027     3.90663    -1.56592
H      0.66552     3.90398    -1.86949
C      5.60911     0.23139    -1.25837
O      4.46371     0.43325    -0.45627
H      5.62846    -0.77570    -1.68691
H      3.69036     0.45372    -1.03659
H      5.66572     0.95707    -2.07465
H      6.48972     0.35119    -0.62867
C      1.61791    -0.59618    -2.67923
O      2.08322     0.53797    -1.95934
H      2.39393    -1.36154    -2.65745
H      1.32332     1.13337    -1.84589
H      0.71868    -1.02155    -2.23364
H      1.41755    -0.33669    -3.72039
C      1.85344     2.62654     1.02885
O      0.61045     1.93015     0.99155
H      2.54226     2.25486     0.27288
H      0.27641     1.97332     0.07299
H      1.69676     3.69465     0.87998
H      2.29716     2.47688     2.01148
C     -3.94336     0.17999     1.06525
O     -3.19932    -0.57133     0.11629
H     -4.80839     0.61524     0.56583
H     -2.51682    -1.07626     0.59548
H     -4.30165    -0.45954     1.87276
H     -3.33705     0.97346     1.50014
C     -2.32955    -0.24995    -3.03407
O     -2.32749     0.72805    -1.99819
H     -1.81887    -1.15944    -2.71825
H     -2.69431     0.27616    -1.19794
H     -3.35254    -0.49608    -3.31516
H     -1.82638     0.16202    -3.90947
C     -1.83856    -2.21891     2.80453
O     -1.30798    -1.90317     1.52600
H     -1.16675    -2.89007     3.33938
H     -0.46511    -1.40491     1.68107
H     -1.99174    -1.31408     3.39053
H     -2.79141    -2.72772     2.67094
C      2.03775    -1.25087     1.13549
O      0.94632    -0.63507     1.81741
H      2.02898    -2.31322     1.37406
H      0.90335     0.29798     1.53289
H      1.95209    -1.13618     0.05601
H      2.98988    -0.83366     1.45862
C     -0.63192     1.06545     4.25490
O     -1.42148     1.26771     3.09489
H     -1.30012     0.79376     5.07168
H     -0.84855     1.59165     2.38892
H      0.09094     0.26048     4.11366
H     -0.09445     1.97265     4.54398
