 36
-694.8420848038187
C      0.79728     1.57857    -3.55297
O     -0.54597     1.97098    -3.28769
H      0.84294     0.59416    -4.02774
H     -1.02480     2.00617    -4.11537
H      1.31096     2.30649    -4.18400
H      1.30712     1.51856    -2.59458
C      1.89559     2.33954     0.89797
O      1.27736     1.35288     0.08265
H      2.09267     3.22467     0.29493
H      1.57178     0.48009     0.43341
H      1.24607     2.61382     1.73366
H      2.83707     1.96689     1.30248
C      2.00449    -2.13700     0.71043
O      1.81491    -0.88771     1.35470
H      2.84055    -2.03826     0.01987
H      1.06490    -0.97593     1.98025
H      2.25529    -2.91402     1.43499
H      1.11238    -2.43385     0.16114
C     -0.71646    -1.36286    -1.78237
O     -1.23387    -1.66086    -0.49911
H      0.05539    -0.59108    -1.74779
H     -1.35961    -0.81202    -0.05100
H     -0.27660    -2.26853    -2.20095
H     -1.50280    -1.02590    -2.46320
C     -2.35136     1.62247    -0.02139
O     -1.34153     0.85012     0.61979
H     -3.23734     1.00012    -0.14170
H     -0.46154     1.19494     0.35848
H     -2.61338     2.48640     0.59030
H     -2.01413     1.95408    -1.00335
C     -1.12904    -2.22902     2.82569
O     -0.45881    -0.97279     2.76994
H     -2.09608    -2.12945     3.32062
H     -0.98406    -0.35806     2.23673
H     -1.27159    -2.64038     1.82711
H     -0.50842    -2.90620     3.40898
