 36
-694.8440541253071
C      0.92890     0.54927    -2.20000
O      1.39299     0.80079    -0.88156
H     -0.14465     0.34404    -2.21998
H      1.25217    -0.01727    -0.36545
H      1.12735     1.43181    -2.80635
H      1.45242    -0.29977    -2.64284
C     -0.39333     1.98729     1.60589
O     -0.45526     2.42949     0.25304
H     -1.39374     2.03763     2.03665
H      0.30834     2.02155    -0.20248
H     -0.03154     0.95919     1.66553
H      0.26634     2.63341     2.18583
C      3.60742    -0.03876     1.50808
O      4.32354    -1.26485     1.56023
H      3.75903     0.37788     0.51479
H      4.22006    -1.63120     2.43771
H      2.53881    -0.18806     1.66344
H      3.98724     0.67895     2.23994
C     -2.36638    -2.06171    -1.45254
O     -1.92686    -1.28648    -0.35188
H     -3.42616    -1.89741    -1.65315
H     -2.20865    -0.35718    -0.50956
H     -1.79861    -1.81041    -2.35187
H     -2.21733    -3.11510    -1.22252
C     -3.82941     1.82616    -0.44445
O     -2.59682     1.24182    -0.82338
H     -4.63857     1.16919    -0.76025
H     -1.86935     1.80974    -0.48297
H     -3.88839     1.95795     0.63833
H     -3.96380     2.79710    -0.92432
C      1.15908    -2.66022     0.55407
O      0.58289    -1.36632     0.53534
H      0.96967    -3.19599    -0.37972
H     -0.35931    -1.43102     0.26901
H      2.23365    -2.55509     0.68351
H      0.75843    -3.25249     1.37992
