 36
-694.8433375139571
C      0.49619     3.62466    -2.05074
O      1.90602     3.82688    -1.99665
H      0.03911     3.69933    -1.06016
H      2.06779     4.68802    -1.61229
H      0.01920     4.33974    -2.72417
H      0.32025     2.62081    -2.42611
C      1.91116    -2.36145     2.05423
O      0.85368    -1.99821     1.18315
H      1.82569    -1.84003     3.01120
H      1.11487    -1.17575     0.71628
H      1.87104    -3.43572     2.22786
H      2.87931    -2.11805     1.61323
C      2.80140     0.71432    -0.59401
O      1.55526     0.21752    -0.11918
H      2.65989     1.61410    -1.19166
H      0.85864     0.42549    -0.77242
H      3.41990     0.95417     0.27009
H      3.31122    -0.04516    -1.19185
C     -0.91423    -0.94628    -2.08200
O     -0.73820     0.38175    -1.60807
H     -0.20908    -1.11329    -2.89501
H     -1.35802     0.49709    -0.85502
H     -0.72413    -1.68442    -1.29886
H     -1.92674    -1.09326    -2.46076
C     -2.45301    -3.17143     1.18195
O     -1.79982    -2.00384     1.64513
H     -2.16619    -4.04187     1.77561
H     -0.83417    -2.11625     1.53452
H     -3.52845    -3.02711     1.27359
H     -2.21121    -3.36554     0.13388
C     -1.55197     1.27748     1.59709
O     -2.18472     0.43438     0.64088
H     -0.46579     1.26355     1.47472
H     -2.17247    -0.47294     1.01385
H     -1.91150     2.29563     1.45630
H     -1.79329     0.95974     2.61201
