 54
-1042.280680453749
C      5.18134    -1.44679    -0.81835
O      3.81292    -1.83799    -0.89418
H      5.72448    -2.24473    -0.31620
H      3.31183    -1.14483    -1.34640
H      5.60265    -1.31411    -1.81591
H      5.29204    -0.52306    -0.25167
C      1.23750     0.66865    -2.63221
O      1.90447     0.32304    -1.42695
H      0.92626    -0.23342    -3.16396
H      1.23288     0.01649    -0.77674
H      0.35961     1.28194    -2.43469
H      1.93332     1.22280    -3.25753
C     -3.84694    -2.15730    -1.49856
O     -3.88423    -0.76068    -1.25181
H     -3.46508    -2.70507    -0.63403
H     -4.09285    -0.60576    -0.30923
H     -4.84194    -2.53215    -1.74345
H     -3.18483    -2.34039    -2.34510
C     -2.55863     2.03432    -2.76840
O     -2.02710     1.07431    -1.87330
H     -2.77511     1.58446    -3.74004
H     -2.69855     0.36940    -1.77395
H     -3.47608     2.47518    -2.37051
H     -1.82170     2.82475    -2.90853
C      3.36479    -1.48073     2.47503
O      2.50280    -1.94157     1.44770
H      2.78396    -1.37823     3.39107
H      3.03040    -2.03250     0.62681
H      4.16407    -2.19972     2.66399
H      3.80551    -0.51899     2.21431
C     -0.71277    -1.44771     0.41491
O      0.42278    -0.60041     0.53283
H     -1.16390    -1.33645    -0.57032
H      1.12703    -1.08653     1.02351
H     -0.42961    -2.49097     0.54718
H     -1.46200    -1.18687     1.15941
C      2.94162     2.03196     1.37887
O      3.73216     1.37747     0.40991
H      2.10824     1.40965     1.71990
H      3.14709     1.07850    -0.29891
H      3.56830     2.26033     2.24221
H      2.53535     2.97373     0.99941
C     -5.05777     0.50650     2.19737
O     -4.05140    -0.04504     1.36486
H     -5.84853    -0.23127     2.32375
H     -3.32298     0.61006     1.31463
H     -4.64821     0.75468     3.17937
H     -5.48047     1.41139     1.75453
C     -0.89430     1.98255     1.59024
O     -2.08341     1.67419     0.87718
H     -0.58080     1.13594     2.19860
H     -1.87629     1.57868    -0.06745
H     -0.08263     2.23035     0.90658
H     -1.08474     2.83705     2.23778
