 36
-694.8576147640043
C      0.63715     2.31048    -3.08928
O      0.71476     1.28841    -2.11726
H      0.91525     1.89921    -4.05831
H      0.81818     1.71370    -1.23614
H     -0.37794     2.71003    -3.15690
H      1.31870     3.12853    -2.85458
C     -0.34335     3.21558     0.45409
O      0.82076     2.42671     0.25423
H     -0.06918     4.22594     0.76234
H      0.90269     1.84717     1.04704
H     -0.90909     3.27549    -0.47767
H     -0.97946     2.77015     1.21809
C     -0.37634    -2.41598     3.04763
O      0.13889    -1.64947     1.97870
H     -0.55737    -3.44651     2.74093
H     -0.32542    -1.92346     1.15568
H      0.34826    -2.42233     3.86033
H     -1.31336    -1.99168     3.41719
C      0.04499    -1.63650    -3.42751
O     -0.62864    -0.94341    -2.39167
H     -0.12265    -2.70637    -3.30455
H     -0.15204    -0.09216    -2.27422
H     -0.33877    -1.33037    -4.40319
H      1.11763    -1.44068    -3.39446
C      2.08608     0.73497     3.09002
O      0.88338     0.83478     2.34809
H      2.65213    -0.15055     2.79800
H      0.57189    -0.08573     2.20247
H      2.69340     1.62010     2.90153
H      1.87015     0.67785     4.15915
C     -2.59763    -1.97698     0.01596
O     -1.22129    -2.25952    -0.19193
H     -3.20681    -2.84441    -0.24363
H     -0.97276    -1.81962    -1.03804
H     -2.76584    -1.73295     1.06655
H     -2.90902    -1.12786    -0.59130
