 42
-810.6657118202215
C      0.30506    -1.61774    -1.32160
O     -1.10085    -1.43954    -1.13785
H      0.57264    -2.66763    -1.19008
H     -1.30369    -1.62279    -0.19605
H      0.57023    -1.32528    -2.33538
H      0.88768    -1.01589    -0.61996
C      1.99132    -2.35575     2.23463
O      1.05369    -1.30381     2.37896
H      2.99962    -2.02098     2.48116
H      1.44323    -0.49657     1.98214
H      1.71998    -3.16634     2.90854
H      1.99613    -2.73826     1.21056
C     -1.79553    -3.14045     1.94254
O     -1.41647    -1.85436     1.48932
H     -2.85855    -3.27819     1.75786
H     -0.54947    -1.63468     1.89094
H     -1.24290    -3.92521     1.41788
H     -1.61481    -3.24884     3.01280
C      1.71999     1.80960    -2.63374
O      0.79513     1.11438    -3.44080
H      2.68458     1.80078    -3.14054
H     -0.07737     1.20331    -3.04339
H      1.42631     2.85205    -2.47834
H      1.84767     1.33520    -1.65889
C     -3.07438     1.23761    -1.89858
O     -1.67929     0.99218    -1.89994
H     -3.53292     0.85545    -2.80975
H     -1.54389     0.03112    -1.69753
H     -3.54885     0.76472    -1.03796
H     -3.23648     2.31152    -1.84587
C      2.94206     1.86481     1.35285
O      1.94900     0.87958     1.13008
H      3.90208     1.36579     1.46337
H      1.16124     1.32985     0.75562
H      3.00023     2.55059     0.50612
H      2.72558     2.43713     2.25734
C     -1.27105     1.63505     1.32236
O     -0.34466     1.93548     0.28009
H     -0.72199     1.51937     2.25664
H     -0.77387     1.71630    -0.56861
H     -1.98916     2.44857     1.44444
H     -1.81015     0.70884     1.12445
