 24
-463.2237595259785
C      2.75028     0.36841     1.77234
O      1.71528     0.86845     0.94289
H      2.39272    -0.44464     2.41207
H      1.40904     0.14775     0.37656
H      3.59714     0.00198     1.18554
H      3.09450     1.18395     2.40761
C     -0.54019     2.38420    -1.12956
O     -1.04036     1.10606    -1.52762
H      0.21204     2.74829    -1.83318
H     -0.29896     0.49354    -1.57195
H     -1.38122     3.07551    -1.12671
H     -0.10191     2.33710    -0.13307
C     -1.74627    -0.36581     1.82026
O     -1.89683    -0.80353     0.47216
H     -2.65744     0.11580     2.17630
H     -2.02683    -0.02830    -0.09413
H     -1.55734    -1.24864     2.42687
H     -0.90859     0.32597     1.92261
C      0.64848    -2.36097    -1.47875
O      0.54138    -1.24748    -0.60405
H      1.49061    -2.18778    -2.14462
H     -0.32674    -1.29859    -0.15670
H      0.82201    -3.28108    -0.91812
H     -0.26078    -2.46985    -2.07211
