 42
-810.6645569734691
C     -0.91316    -2.92408     0.31107
O     -1.21332    -1.55482     0.04355
H     -1.62378    -3.34115     1.02734
H     -1.06747    -1.02759     0.84322
H     -1.00259    -3.47808    -0.62265
H      0.10150    -3.04023     0.68791
C     -0.73758     0.54279     3.46691
O     -0.52694     0.46303     2.06782
H     -0.28948     1.45035     3.87352
H     -0.76165     1.33980     1.67680
H     -1.80548     0.54421     3.69201
H     -0.27613    -0.32260     3.93764
C      2.03160     0.78687    -0.04662
O      1.80723    -0.28184     0.86682
H      2.23521     0.38469    -1.03716
H      1.03688    -0.05207     1.41076
H      1.15688     1.43442    -0.11605
H      2.88686     1.37976     0.28039
C      0.69443    -1.26451    -2.90491
O     -0.08420    -0.39625    -2.09357
H      1.35049    -1.88784    -2.29767
H     -0.43169    -0.90695    -1.33354
H      0.05342    -1.90405    -3.51591
H      1.30364    -0.65367    -3.56968
C     -2.57068     1.60657    -2.06177
O     -1.24272     1.97094    -1.70009
H     -2.77349     0.57354    -1.77620
H     -0.69023     1.19190    -1.91115
H     -3.27280     2.26202    -1.54491
H     -2.72093     1.71434    -3.13661
C      3.86805    -2.85488     0.10482
O      2.47091    -2.73521    -0.06028
H      4.41191    -2.31660    -0.67894
H      2.20498    -1.86319     0.28194
H      4.19904    -2.47120     1.07449
H      4.13663    -3.90928     0.04467
C     -2.43770     3.25657     1.21142
O     -1.17820     2.70200     0.86987
H     -2.38550     3.65185     2.22350
H     -1.17389     2.54300    -0.10253
H     -2.69998     4.07230     0.53810
H     -3.22648     2.50089     1.17038
