 36
-694.8514502159264
C     -3.61052     1.30648    -0.38716
O     -2.31993     1.01969     0.10159
H     -4.09986     1.99078     0.30588
H     -1.96082     0.28766    -0.42321
H     -3.57181     1.78348    -1.37187
H     -4.22632     0.40566    -0.46912
C      1.97026    -2.76074    -0.97442
O      1.30597    -1.54795    -0.66798
H      1.52793    -3.59208    -0.42141
H      1.34205    -1.40616     0.31431
H      1.86519    -2.94747    -2.04070
H      3.02958    -2.69206    -0.72644
C     -0.08094    -1.09110     2.39803
O      1.23836    -0.94888     1.88217
H     -0.32552    -2.15265     2.41228
H      1.46159     0.01078     1.91136
H     -0.13524    -0.71976     3.42068
H     -0.82182    -0.56717     1.79136
C      0.65724     1.70881    -1.86798
O      1.82527     1.26405    -1.17539
H     -0.11808     2.01884    -1.16897
H      1.86429     0.30129    -1.23936
H      0.92915     2.55907    -2.49156
H      0.25590     0.92035    -2.50413
C     -1.92883    -2.36479    -1.01576
O     -1.30953    -1.12664    -1.30875
H     -1.66778    -2.71731    -0.01480
H     -0.35134    -1.24149    -1.16709
H     -3.00929    -2.23431    -1.06588
H     -1.64152    -3.13029    -1.73991
C      0.60808     2.52974     1.84220
O      1.67890     1.65396     1.51989
H      0.55322     2.61065     2.92583
H      1.80514     1.67051     0.55154
H      0.78713     3.52576     1.43439
H     -0.34615     2.15651     1.46772
