 48
-926.4767616826938
C      0.94460    -3.01110     3.38998
O      1.13873    -2.50114     2.08066
H     -0.03613    -2.73386     3.77920
H      0.25871    -2.51280     1.63876
H      1.03135    -4.09940     3.38775
H      1.71134    -2.60515     4.04992
C     -1.47016     1.88296    -3.53167
O     -1.67610     2.49462    -2.26815
H     -2.22597     1.10822    -3.66090
H     -0.92247     3.06530    -2.06606
H     -1.57612     2.60087    -4.35010
H     -0.48971     1.40762    -3.59503
C     -2.91763    -0.53743    -1.21643
O     -1.82443    -1.44263    -1.32440
H     -3.64584    -0.74917    -2.00084
H     -1.05401    -0.95866    -1.68360
H     -3.40682    -0.68183    -0.25112
H     -2.59152     0.49634    -1.29907
C      1.50320    -1.22762    -1.58074
O      0.52977    -0.24065    -1.90340
H      1.35020    -2.08144    -2.24007
H      0.63571     0.50549    -1.29121
H      2.51187    -0.84441    -1.74896
H      1.42581    -1.56950    -0.54688
C     -1.86150    -3.82657     1.08481
O     -1.26379    -2.54109     1.00938
H     -2.93771    -3.74575     1.25249
H     -1.48758    -2.15672     0.12779
H     -1.68664    -4.39746     0.17142
H     -1.42115    -4.36953     1.92189
C     -0.55301     1.33834     0.92578
O      0.76517     1.44457     0.37475
H     -1.21788     1.98049     0.35296
H      1.36180     0.92033     0.96468
H     -0.92648     0.31615     0.87810
H     -0.55097     1.66824     1.96401
C      0.40008     4.83000    -0.11913
O      0.60953     3.77491    -1.04110
H      1.30284     5.03327     0.46202
H      0.82383     2.98553    -0.51902
H      0.13981     5.72483    -0.68052
H     -0.41584     4.60299     0.57245
C      3.61031    -0.19909     1.72260
O      2.21533    -0.07927     1.95142
H      3.81160    -0.76702     0.81078
H      1.84786    -0.99011     2.03775
H      4.03827     0.79687     1.62113
H      4.09900    -0.70247     2.55860
