 36
-694.8510973123986
C      0.30236     2.75327     1.30295
O      0.78283     3.01526    -0.00342
H     -0.28458     1.83230     1.35470
H      1.20755     2.22247    -0.34541
H      1.12066     2.69169     2.02717
H     -0.33746     3.58682     1.59217
C      1.73639     0.69295    -2.87207
O      1.37119     0.48173    -1.51956
H      2.81784     0.78890    -2.92490
H      0.38561     0.43716    -1.46548
H      1.42242    -0.14623    -3.49581
H      1.28285     1.60893    -3.25538
C      2.41398    -0.51486     1.49126
O      2.17672    -1.32713     0.34851
H      3.29863     0.10689     1.34771
H      2.00900    -0.72984    -0.40267
H      1.56081     0.13111     1.70639
H      2.58374    -1.16631     2.34678
C     -0.52762    -3.22185    -0.37027
O     -0.13314    -2.60211     0.84782
H      0.27634    -3.84072    -0.76912
H      0.77363    -2.25130     0.70590
H     -1.38898    -3.85509    -0.16750
H     -0.80285    -2.47674    -1.11940
C     -1.96844     1.61760    -1.44127
O     -1.23435     0.43270    -1.16091
H     -1.79257     1.89720    -2.47896
H     -1.47123     0.12919    -0.25733
H     -3.03914     1.45033    -1.31238
H     -1.64973     2.43384    -0.79499
C     -2.88340    -0.80787     2.03054
O     -1.69318    -0.51174     1.32223
H     -3.48866    -1.54593     1.49745
H     -1.14415    -1.32838     1.28664
H     -2.65889    -1.19280     3.02735
H     -3.45484     0.11278     2.13278
