 60
-1158.0905169645832
C     -0.72679     2.51545    -3.93285
O      0.08375     1.86999    -2.96626
H     -0.84774     3.57588    -3.70176
H     -0.36212     1.92309    -2.09523
H     -0.23560     2.41990    -4.89919
H     -1.71436     2.05180    -3.99339
C     -0.41717     2.87270     0.41893
O     -0.74632     1.76366    -0.41620
H      0.55241     3.28678     0.14172
H     -0.10511     1.04473    -0.19630
H     -1.18250     3.63529     0.29109
H     -0.39327     2.57278     1.46689
C      1.48730     0.38137     3.54047
O      1.54200    -0.63649     2.53991
H      2.22720     1.13826     3.28299
H      0.86108    -1.31390     2.71669
H      0.49876     0.83160     3.58163
H      1.74813    -0.03290     4.51518
C      0.33644    -3.91917     2.72972
O     -0.31265    -2.72767     2.32369
H      1.35689    -3.97650     2.33948
H     -0.33023    -2.73648     1.34578
H      0.37814    -3.93535     3.81759
H     -0.21087    -4.80044     2.38888
C      0.57188    -3.53782    -1.20375
O     -0.10231    -2.64643    -0.32406
H      1.60849    -3.68571    -0.89161
H      0.21129    -1.74501    -0.49615
H      0.06059    -4.49659    -1.15959
H      0.54996    -3.16048    -2.22463
C      2.21998    -0.12224    -0.72771
O      1.04663    -0.07237     0.07608
H      2.91408     0.66778    -0.45207
H      1.30538    -0.22791     1.03042
H      2.71834    -1.08695    -0.62839
H      1.94308     0.00873    -1.77019
C     -3.16746    -0.66848     0.58589
O     -3.06510     0.72895     0.81847
H     -3.76735    -0.87637    -0.30318
H     -2.39078     1.08764     0.22385
H     -2.18748    -1.13864     0.47128
H     -3.66574    -1.12736     1.43915
C     -1.47063    -1.02090    -2.82693
O     -0.11058    -0.94604    -3.20137
H     -2.12969    -0.86237    -3.68326
H      0.11847    -0.01103    -3.27141
H     -1.67399    -2.00960    -2.42274
H     -1.72744    -0.28520    -2.06059
C     -2.11886    -0.09117     4.01676
O     -1.78503     1.05629     3.26048
H     -1.72659    -1.00383     3.56439
H     -2.32563     1.03532     2.45607
H     -1.69251     0.00893     5.01627
H     -3.20128    -0.19557     4.13380
C      3.78512     2.69194    -2.59575
O      2.59077     2.93361    -1.87999
H      3.99877     1.62057    -2.67946
H      1.84422     2.60360    -2.39305
H      3.75335     3.11390    -3.60428
H      4.60524     3.15936    -2.05177
