 60
-1158.0894560122922
C      2.91604     1.29638     2.02811
O      2.44513     1.42366     0.69800
H      2.09060     1.30614     2.74279
H      1.62022     0.90632     0.63364
H      3.47553     0.36450     2.15049
H      3.58774     2.12663     2.25163
C      2.25938    -2.10498    -0.72316
O      0.97116    -1.85484    -1.26317
H      3.01965    -2.07182    -1.50566
H      0.95892    -0.93953    -1.60783
H      2.52304    -1.36940     0.04040
H      2.27485    -3.09415    -0.27232
C      1.60336     4.80406    -0.48070
O      1.26217     3.91116     0.56305
H      2.61944     4.62597    -0.83912
H      1.82109     3.11173     0.51784
H      0.91826     4.70755    -1.32885
H      1.54076     5.82243    -0.10348
C     -3.59537    -0.07821     0.98282
O     -3.05275    -0.69825    -0.16282
H     -3.95038    -0.82375     1.69841
H     -2.41482    -1.39479     0.10582
H     -2.87090     0.56758     1.48097
H     -4.44635     0.52606     0.67382
C      1.35262    -3.66085     2.43985
O      1.63319    -4.76524     1.58899
H      1.26072    -3.96588     3.48393
H      2.45286    -5.17202     1.87221
H      2.12341    -2.88956     2.36639
H      0.40943    -3.23418     2.11785
C     -1.44726    -3.90609     0.00587
O     -1.16198    -2.54033     0.24758
H     -0.64800    -4.54327     0.38551
H     -0.36991    -2.27956    -0.27554
H     -2.37449    -4.16248     0.51816
H     -1.57840    -4.09918    -1.06121
C     -0.36867    -0.24547     2.45390
O     -0.04248     0.33733     1.21158
H     -1.19124    -0.94997     2.34433
H     -0.59116     1.13971     1.06987
H      0.48828    -0.79805     2.83761
H     -0.64136     0.50861     3.19589
C     -1.83285    -0.81720    -3.14742
O     -1.86099     0.31593    -2.28493
H     -2.80483    -0.96365    -3.62222
H     -2.35992     0.04280    -1.48249
H     -1.07961    -0.65723    -3.91971
H     -1.57383    -1.72064    -2.59453
C      1.35667     1.79825    -2.73910
O      0.76695     0.70014    -2.06941
H      2.00745     2.33802    -2.05205
H     -0.21039     0.76415    -2.12257
H      1.95252     1.44897    -3.58178
H      0.59509     2.48605    -3.11534
C     -1.80853     3.01480    -0.37979
O     -1.14930     2.74490     0.84747
H     -1.15601     2.84529    -1.23608
H     -0.32838     3.27676     0.85501
H     -2.67733     2.36851    -0.47588
H     -2.14939     4.05111    -0.40506
