 36
-694.8467016183778
C     -3.03495     1.85775    -2.49645
O     -2.11029     1.97070    -1.42554
H     -3.98324     2.33374    -2.24309
H     -2.50907     1.51347    -0.65913
H     -2.61416     2.35833    -3.36602
H     -3.22184     0.81032    -2.74346
C      4.19629    -2.09492     0.25940
O      3.24692    -1.10414    -0.09113
H      4.59807    -2.52306    -0.65829
H      2.74783    -0.86894     0.70480
H      5.02506    -1.67548     0.83704
H      3.74303    -2.90121     0.84454
C      1.40795     0.66908     2.70758
O      1.57788    -0.61918     2.15033
H      2.24300     0.86927     3.37520
H      0.78144    -0.80794     1.62316
H      1.38115     1.44155     1.93379
H      0.48259     0.72310     3.28669
C      1.33183     1.04512    -2.04441
O      0.08743     0.42583    -1.73481
H      1.33497     1.40596    -3.07369
H     -0.62170     1.10407    -1.73851
H      1.53069     1.88053    -1.37002
H      2.11778     0.30421    -1.92861
C     -2.91374     1.14188     1.88494
O     -2.88713     0.42736     0.65578
H     -3.64221     1.94522     1.79174
H     -2.18275    -0.23672     0.69806
H     -3.21194     0.49279     2.70933
H     -1.93611     1.57574     2.10639
C     -0.22690    -2.43871    -0.06791
O     -0.39643    -1.07858     0.31882
H      0.77679    -2.60665    -0.45843
H     -0.15399    -0.51930    -0.46887
H     -0.37536    -3.06782     0.80752
H     -0.95608    -2.71532    -0.82945
