 42
-810.6652691014044
C     -3.90546    -1.50386    -0.33747
O     -2.92566    -1.30778     0.66371
H     -4.78504    -0.91323    -0.08634
H     -2.16308    -1.88872     0.46470
H     -3.53760    -1.18772    -1.31752
H     -4.19922    -2.55361    -0.40184
C      2.64231    -2.27685     1.31418
O      1.40581    -1.61177     1.13745
H      2.47462    -3.19543     1.87386
H      1.60645    -0.71921     0.77266
H      3.09704    -2.52184     0.35168
H      3.33725    -1.65228     1.87766
C     -0.54855    -4.13328     0.06869
O     -0.72420    -2.73031     0.06803
H      0.32420    -4.41458    -0.52359
H      0.08104    -2.33604     0.46960
H     -0.42095    -4.51732     1.08326
H     -1.42983    -4.59528    -0.37422
C     -1.23613     1.10521     2.23731
O     -2.02367     1.18428     1.05521
H     -0.92401     2.11319     2.50717
H     -2.45173     0.30702     0.94491
H     -1.81638     0.69642     3.06466
H     -0.34849     0.48485     2.09368
C     -0.81523     0.60503    -1.90546
O     -0.42700     1.65282    -1.01296
H     -1.79251     0.82834    -2.33045
H     -1.05541     1.62766    -0.25200
H     -0.08857     0.54775    -2.71535
H     -0.86222    -0.35965    -1.39821
C      2.46940     1.79812     0.92101
O      1.90783     0.77446     0.11231
H      3.22894     1.34902     1.55946
H      1.14553     1.16193    -0.35999
H      2.93424     2.56532     0.30698
H      1.71300     2.26214     1.55553
C      2.31728     2.93687    -2.65284
O      1.54211     3.66412    -1.72312
H      1.73996     2.67020    -3.54249
H      0.74350     3.15407    -1.54978
H      3.14735     3.56826    -2.96494
H      2.72468     2.02254    -2.21627
