 36
-694.8572536653825
C      0.19907     1.46738    -2.77938
O      1.40995     1.34200    -2.03375
H      0.28722     2.27178    -3.50977
H      1.26103     1.83002    -1.19619
H      0.01774     0.53129    -3.30874
H     -0.64178     1.66621    -2.11361
C      1.16677     1.44454     1.30763
O      0.63913     2.34935     0.34441
H      2.20566     1.23022     1.05487
H     -0.33287     2.25916     0.36920
H      1.14327     1.88867     2.30340
H      0.61054     0.50517     1.32414
C      3.04745    -1.66205    -1.62203
O      1.69763    -1.24952    -1.51738
H      3.43365    -1.47188    -2.62389
H      1.65915    -0.29155    -1.74632
H      3.67494    -1.13826    -0.89673
H      3.10496    -2.73232    -1.42904
C      0.65729    -3.41741     0.75853
O      0.14231    -2.15347     0.39120
H      1.74706    -3.40159     0.79447
H      0.69644    -1.81467    -0.34551
H      0.28597    -3.67226     1.75044
H      0.34135    -4.18804     0.05261
C     -3.11765     2.37711     0.98209
O     -2.00708     1.73786     0.38511
H     -4.02849     1.79016     0.84707
H     -2.05201     0.79109     0.63673
H     -2.95707     2.52408     2.05352
H     -3.26138     3.34781     0.51185
C     -2.09106    -1.00090     2.56892
O     -1.97707    -0.80063     1.17258
H     -1.84467    -2.02814     2.83668
H     -1.22171    -1.34251     0.85833
H     -1.42071    -0.33077     3.11546
H     -3.11649    -0.80091     2.87556
