 42
-810.6585419215436
C     -2.19456     0.81291     1.65609
O     -1.24230     0.02113     2.35579
H     -3.17982     0.37878     1.81605
H     -0.36950     0.35549     2.10597
H     -2.20447     1.83579     2.03427
H     -1.97389     0.82906     0.58774
C      1.94507    -4.08751     1.44540
O      1.42225    -3.01075     0.69534
H      2.99132    -4.22334     1.17180
H      0.50451    -2.85359     0.98584
H      1.89347    -3.89590     2.52160
H      1.41315    -5.02141     1.23938
C     -2.11758    -2.61670     0.46994
O     -1.12546    -2.51393     1.47438
H     -3.09800    -2.33203     0.85855
H     -1.22790    -1.64229     1.90451
H     -1.87982    -1.98759    -0.38880
H     -2.17882    -3.65674     0.15312
C      2.02660     3.74688    -0.67299
O      0.71359     3.25356    -0.45811
H      2.23971     4.57088     0.00942
H      0.77287     2.47072     0.12237
H      2.77053     2.96275    -0.52290
H      2.10932     4.11521    -1.69634
C      0.27370    -1.28849    -2.21425
O     -0.29896    -0.27243    -1.39925
H      0.74935    -2.03087    -1.57853
H     -0.43909     0.53455    -1.94708
H     -0.50026    -1.78329    -2.80438
H      1.01856    -0.87286    -2.89553
C      2.25122     0.29314     0.73819
O      0.91658     0.78293     0.67583
H      2.81648     0.93109     1.41518
H      0.45550     0.27463    -0.03427
H      2.27222    -0.72940     1.10351
H      2.71924     0.32126    -0.24692
C     -1.88902     2.62327    -2.54207
O     -0.56084     2.12181    -2.52367
H     -2.40361     2.39800    -1.60368
H     -0.06038     2.66223    -1.87474
H     -1.89465     3.70362    -2.68929
H     -2.42759     2.15401    -3.36266
