 30
-579.0439933325152
C      2.78235     0.89281    -1.11935
O      1.83558     0.87965    -0.06606
H      2.39564     0.37875    -2.00274
H      1.79549    -0.03724     0.29092
H      3.00094     1.92602    -1.38187
H      3.70998     0.40383    -0.81852
C     -3.41447     0.05034    -0.06353
O     -2.09723    -0.10188     0.43065
H     -3.93210    -0.90492     0.01522
H     -1.61368     0.73557     0.26063
H     -3.96823     0.79032     0.51880
H     -3.41276     0.36384    -1.11033
C      1.04514    -1.75018     2.08096
O      1.58499    -1.64676     0.76686
H      1.72859    -1.26858     2.77814
H      0.88333    -1.95543     0.15405
H      0.06851    -1.26605     2.14380
H      0.93671    -2.79624     2.36755
C     -0.57397     3.08711     0.83320
O     -0.56432     2.02058    -0.10126
H     -1.60703     3.32611     1.08464
H      0.35296     1.66836    -0.13997
H     -0.04527     2.81465     1.74899
H     -0.10555     3.97587     0.40677
C     -0.34013    -1.32645    -2.02546
O     -0.58766    -1.96468    -0.78264
H      0.58325    -1.72534    -2.44603
H     -1.21095    -1.38723    -0.29485
H     -1.14815    -1.52671    -2.73180
H     -0.23778    -0.24627    -1.90665
