 36
-694.8528081025615
C     -1.78308     1.10904    -3.32886
O     -0.94138     1.13808    -2.18650
H     -1.63576     2.02601    -3.89597
H     -0.55475     0.24780    -2.07042
H     -1.54520     0.25849    -3.96817
H     -2.83287     1.04277    -3.03209
C      2.37886     0.81078    -0.44497
O      2.89159     0.14621     0.69077
H      3.06594     1.61719    -0.70278
H      2.39657    -0.67241     0.80373
H      2.29746     0.14586    -1.31039
H      1.39830     1.24823    -0.25675
C      0.64280    -3.16201     1.71448
O      0.90633    -1.93366     1.06123
H      1.04499    -3.96243     1.09990
H      0.35748    -1.23827     1.49565
H      1.12025    -3.19166     2.69519
H     -0.43062    -3.31460     1.83882
C     -0.86818     3.19928     0.49062
O     -1.36067     1.87563     0.34402
H     -1.67954     3.92322     0.40101
H     -1.30657     1.64667    -0.60624
H     -0.41485     3.30453     1.47616
H     -0.11046     3.41665    -0.26383
C     -1.49793    -1.83104    -1.03741
O     -0.22842    -1.36436    -1.49179
H     -2.27781    -1.32928    -1.60859
H      0.41797    -1.58393    -0.80266
H     -1.59112    -2.90667    -1.19424
H     -1.63789    -1.61051     0.02121
C      0.39849     0.78629     2.99833
O     -0.45110     0.09199     2.09250
H      0.83266     0.06613     3.69035
H     -0.82377     0.74616     1.45922
H      1.21054     1.29552     2.47893
H     -0.16957     1.51261     3.58161
