 36
-694.8450649515529
C      0.68330     1.25114    -2.58341
O      0.09837     0.07339    -2.04754
H      1.57526     0.97150    -3.14216
H     -0.68424     0.36043    -1.53145
H     -0.00089     1.75271    -3.26985
H      0.96645     1.95052    -1.79316
C      2.16000     2.28141     1.92771
O      1.14342     1.82031     1.05503
H      2.04182     3.35780     2.05449
H      1.36886     0.93006     0.73905
H      2.09211     1.81384     2.91559
H      3.16261     2.09379     1.53017
C      3.02714    -0.92814    -0.55210
O      1.71222    -0.75902    -0.05977
H      3.71354    -0.93460     0.29390
H      1.11721    -0.60967    -0.82378
H      3.12957    -1.87397    -1.08817
H      3.31044    -0.11424    -1.22420
C     -1.08465    -3.00542    -1.27297
O     -2.02962    -2.29851    -0.47721
H     -1.05786    -4.03326    -0.91564
H     -2.14143    -1.41284    -0.83967
H     -1.37222    -3.01070    -2.32682
H     -0.09073    -2.57058    -1.18027
C     -2.04302     2.10628    -0.15971
O     -1.85777     0.70668    -0.34739
H     -2.36858     2.53926    -1.10395
H     -1.68746     0.30151     0.53466
H     -2.81499     2.29131     0.58683
H     -1.11089     2.57285     0.15690
C     -0.30478    -0.68939     2.69237
O     -1.43581    -0.70392     1.82565
H     -0.15298     0.33801     3.01103
H     -1.54635    -1.58303     1.43444
H     -0.49455    -1.30744     3.57066
H      0.58533    -1.04086     2.17623
