 36
-694.8533166393748
C     -0.20042     4.44997    -1.56080
O     -0.32023     3.03907    -1.60334
H     -1.12181     4.92648    -1.21319
H     -0.49283     2.71435    -0.71141
H      0.62379     4.76739    -0.91365
H      0.00488     4.79696    -2.57296
C      2.04949    -2.27621     1.86190
O      1.53805    -2.19970     0.53794
H      1.32917    -1.87569     2.58022
H      1.59730    -1.25478     0.27362
H      2.24949    -3.31929     2.09936
H      2.97663    -1.70994     1.95238
C      2.04889     0.86521    -1.23663
O      1.66960     0.38902     0.04802
H      2.87277     0.24901    -1.59137
H      0.91564     0.91416     0.36251
H      1.22383     0.80158    -1.94649
H      2.37869     1.90114    -1.18369
C     -1.72181    -0.50708    -1.51996
O     -1.95012    -0.55131    -0.11241
H     -0.89916    -1.16621    -1.80003
H     -1.69260    -1.45560     0.18314
H     -2.62245    -0.81350    -2.05320
H     -1.47874     0.51362    -1.81360
C     -1.22478    -3.87496    -0.62779
O     -1.01775    -2.96334     0.44082
H     -1.45298    -4.86834    -0.24028
H     -0.05084    -2.80389     0.51012
H     -2.06595    -3.54041    -1.23701
H     -0.33730    -3.93284    -1.25981
C     -1.07518     1.86893     2.16608
O     -0.71934     1.54503     0.83126
H     -1.61754     1.04311     2.62464
H     -1.26143     0.76488     0.54502
H     -0.17109     2.06274     2.74276
H     -1.70483     2.75815     2.17780
