 54
-1042.2769190158967
C      3.51622     0.38989    -0.92366
O      2.32911     0.03246    -1.61674
H      3.45377     0.12987     0.13505
H      1.69864     0.75954    -1.46892
H      4.35311    -0.15099    -1.36073
H      3.71054     1.46000    -1.00932
C     -3.24973    -2.98421    -3.66611
O     -2.49922    -1.83420    -3.35125
H     -4.32684    -2.79252    -3.65087
H     -2.90749    -1.42311    -2.57703
H     -2.97485    -3.30999    -4.66747
H     -3.03720    -3.80424    -2.97200
C     -3.78834    -1.55211     0.07505
O     -3.51618    -0.70547    -1.02432
H     -2.87116    -1.99842     0.46340
H     -2.90737    -0.01537    -0.71013
H     -4.28014    -1.00682     0.88405
H     -4.45031    -2.34841    -0.25760
C      2.35635     2.10090     2.19456
O      1.17147     2.63920     1.61500
H      2.30321     1.01708     2.30046
H      0.41043     2.24491     2.09831
H      3.19934     2.35463     1.55110
H      2.53902     2.55164     3.16987
C      3.34990    -2.66173     2.45273
O      2.39617    -1.67213     2.11463
H      3.84587    -2.36348     3.37653
H      2.02430    -1.91816     1.24751
H      2.87898    -3.63619     2.61064
H      4.11120    -2.77225     1.67441
C     -2.40788     2.51237    -0.14716
O     -1.81266     1.21526    -0.16448
H     -2.75758     2.78705    -1.14201
H     -0.95482     1.29730    -0.61228
H     -3.25699     2.48432     0.53344
H     -1.69988     3.26142     0.20266
C      1.03866     3.25139    -1.74633
O      0.78619     2.13397    -0.91248
H      2.03885     3.64568    -1.56046
H      1.00342     2.38877     0.02547
H      0.97123     2.93748    -2.78504
H      0.31001     4.04132    -1.56375
C      0.00709    -2.16959    -0.54628
O      1.41575    -2.16926    -0.38041
H     -0.40012    -3.03168    -0.01918
H      1.76796    -1.44617    -0.94013
H     -0.43909    -1.26283    -0.12880
H     -0.27691    -2.24372    -1.59537
C     -0.44488     0.05413     3.24755
O     -0.88886     1.27100     2.63898
H      0.22491     0.31043     4.06556
H     -1.41231     1.04719     1.85909
H     -1.28984    -0.49951     3.65631
H      0.09679    -0.57434     2.54104
