 60
-1158.0992758294947
C      4.05410     1.19836    -0.22591
O      3.73169     0.54484     0.98892
H      3.30656     1.01664    -1.00214
H      3.59033    -0.38649     0.78560
H      4.09414     2.27119    -0.03533
H      5.03101     0.88415    -0.60236
C      2.71564    -1.81191    -3.50036
O      2.01190    -1.40838    -2.33806
H      2.03799    -1.89584    -4.35097
H      1.68133    -0.49596    -2.50295
H      3.50738    -1.10323    -3.75018
H      3.16458    -2.78855    -3.32312
C      0.44332     2.28367     0.52949
O      0.07179     2.42380    -0.83770
H      0.55486     3.26437     0.99003
H     -0.89199     2.62373    -0.85684
H     -0.30525     1.72995     1.09264
H      1.39582     1.76446     0.60852
C      0.35805     1.28070    -3.92477
O      1.14384     1.04105    -2.76873
H     -0.68834     1.01511    -3.75025
H      0.76599     1.59459    -2.04116
H      0.40765     2.33103    -4.21603
H      0.73853     0.67389    -4.74756
C      3.15835    -3.36908     0.05145
O      2.79867    -1.99565     0.06705
H      2.62159    -3.88701    -0.74152
H      2.52052    -1.75947    -0.85512
H      4.23129    -3.47486    -0.11115
H      2.89840    -3.82055     1.00860
C     -2.47456    -3.02769     3.21095
O     -3.28274    -2.26226     2.33417
H     -2.50896    -4.08666     2.94389
H     -2.70132    -1.78185     1.73499
H     -1.43075    -2.70042     3.19123
H     -2.84852    -2.91774     4.22961
C     -4.53389     0.80283     1.39195
O     -3.22096     1.34094     1.32624
H     -5.23126     1.62044     1.56915
H     -2.60240     0.59059     1.26331
H     -4.80171     0.30821     0.45426
H     -4.62190     0.08336     2.20502
C     -1.48419    -0.83057    -0.63707
O     -1.51955    -0.66008     0.77803
H     -0.86140    -0.07079    -1.10179
H     -0.62436    -0.88795     1.13134
H     -1.10515    -1.81690    -0.89819
H     -2.49757    -0.73535    -1.02739
C      1.26865    -0.78190     2.93351
O      0.78268    -1.39600     1.74648
H      1.78139     0.15476     2.71871
H      1.54654    -1.62411     1.17891
H      0.41791    -0.58221     3.58428
H      1.95364    -1.45212     3.45312
C     -2.72740     4.29418    -0.32344
O     -2.53305     2.93843    -0.69148
H     -2.18598     4.53849     0.59324
H     -2.88363     2.38233     0.04168
H     -2.36052     4.93065    -1.12695
H     -3.78598     4.50682    -0.16726
