 60
-1158.089881164944
C      3.54859    -3.64915    -0.29488
O      3.69318    -2.54771    -1.17235
H      3.42996    -4.54411    -0.90550
H      3.69616    -1.73742    -0.64874
H      4.43167    -3.77718     0.33741
H      2.66980    -3.54659     0.34794
C     -0.38611     2.94434    -0.94774
O     -1.42747     2.15128    -1.50986
H     -0.81627     3.87970    -0.59495
H     -1.00103     1.52783    -2.13530
H      0.09805     2.43431    -0.11013
H      0.37376     3.17632    -1.69222
C      0.31572    -1.89292     0.01893
O      0.96580    -1.38504     1.18465
H     -0.15790    -2.84742     0.24946
H      0.27217    -0.89738     1.67141
H     -0.44237    -1.20130    -0.34533
H      1.04751    -2.05884    -0.76914
C     -5.20893    -0.53314     2.31752
O     -4.77597    -1.83178     1.91210
H     -6.28051    -0.39843     2.15507
H     -5.32572    -2.48639     2.34299
H     -4.98977    -0.35522     3.37439
H     -4.66584     0.19318     1.72095
C     -0.28669     3.15764     2.89425
O      0.64943     2.15729     2.54569
H     -0.99988     3.34286     2.08632
H      0.15533     1.33484     2.44229
H     -0.85436     2.89075     3.78984
H      0.25506     4.07996     3.09615
C     -0.15835     0.01564    -4.36099
O     -0.10528     0.31792    -2.97871
H      0.41433     0.73584    -4.94913
H      0.84605     0.38975    -2.73707
H      0.24054    -0.98249    -4.55553
H     -1.19593     0.04301    -4.69210
C     -3.12315    -0.43528    -0.62467
O     -2.66178     0.60930     0.23538
H     -2.45551    -0.54815    -1.47852
H     -2.26950     1.28880    -0.36301
H     -3.16740    -1.37467    -0.07673
H     -4.12034    -0.19976    -0.99101
C      3.42528     0.11015    -3.18907
O      2.42675     0.61643    -2.31258
H      3.43568    -0.97946    -3.18294
H      2.68403     0.37629    -1.39947
H      3.21346     0.46079    -4.19894
H      4.41098     0.47714    -2.89856
C      3.34577     1.11035     0.97448
O      3.00917    -0.04911     0.21578
H      2.65470     1.92690     0.76282
H      2.26279    -0.50940     0.67427
H      3.30687     0.89636     2.04088
H      4.35448     1.40944     0.69884
C     -1.77488    -0.81105     3.19031
O     -1.07668    -0.04249     2.21795
H     -2.48092    -1.49241     2.72015
H     -1.71387     0.21445     1.50036
H     -1.04465    -1.37839     3.76624
H     -2.31173    -0.14988     3.87176
