 60
-1158.10211783661
C      3.14340    -0.59684    -2.47673
O      3.41273    -1.69345    -1.62177
H      2.78199    -0.93333    -3.44830
H      2.68126    -2.33359    -1.75708
H      2.39463     0.06779    -2.04025
H      4.06077    -0.02960    -2.61980
C     -1.32882     4.67771    -0.99686
O     -0.65190     3.67796    -0.26078
H     -2.41153     4.62337    -0.83950
H     -0.88388     2.81514    -0.64568
H     -0.98277     5.65493    -0.66007
H     -1.13820     4.59384    -2.07076
C      0.56128    -3.04777    -3.22434
O      1.21903    -3.14138    -1.97605
H      1.25873    -3.32718    -4.01275
H      0.53785    -3.02628    -1.27740
H     -0.30022    -3.71535    -3.27524
H      0.21909    -2.02766    -3.41007
C     -0.23703    -2.23089     1.13549
O     -0.64776    -2.70975    -0.14252
H     -0.85268    -1.38902     1.44893
H     -1.57177    -2.41257    -0.26158
H     -0.32561    -3.02518     1.87763
H      0.79858    -1.89743     1.10363
C      4.76895    -0.74764     1.37668
O      3.44026    -0.88778     0.90708
H      5.32888    -0.03361     0.76728
H      3.49057    -1.21316    -0.02085
H      4.74256    -0.39019     2.40476
H      5.28896    -1.70569     1.35646
C     -3.91859    -2.71985     0.67135
O     -3.16457    -1.79242    -0.10079
H     -3.92761    -2.42897     1.72385
H     -3.19667    -0.93089     0.35424
H     -4.94618    -2.77933     0.30764
H     -3.46218    -3.70644     0.59039
C     -0.62150     0.27018    -1.65251
O     -1.51817     1.32915    -1.34587
H      0.10195     0.09199    -0.85436
H     -2.22510     0.98122    -0.78722
H     -1.15541    -0.66018    -1.84101
H     -0.08754     0.53674    -2.56590
C      2.30420     2.17749     0.90005
O      1.62916     0.99081     1.29530
H      3.07777     2.44223     1.62338
H      2.28895     0.26538     1.21221
H      2.77487     2.04532    -0.07624
H      1.59333     2.99679     0.82802
C     -0.85478     2.52270     2.96632
O     -0.81897     1.28254     2.27232
H     -0.10191     2.55175     3.75550
H      0.08083     1.17158     1.89207
H     -0.69699     3.35182     2.27916
H     -1.83218     2.63602     3.43555
C     -3.81546     1.83135     1.10001
O     -2.99823     0.67252     1.00468
H     -4.38430     1.80796     2.02960
H     -2.16349     0.86629     1.50232
H     -3.20907     2.73633     1.08065
H     -4.50532     1.84803     0.25923
