 36
-694.8476358958316
C      0.91595     4.32773    -0.89594
O      0.00796     3.25393    -0.71854
H      0.43858     5.23531    -0.52835
H      0.47825     2.42787    -0.88846
H      1.84156     4.17194    -0.33238
H      1.16963     4.47317    -1.94972
C      2.05979    -0.29429    -1.52554
O      1.26319     0.66069    -0.83102
H      2.10833    -0.00415    -2.57065
H      1.47192     0.57307     0.13673
H      3.06834    -0.31703    -1.11502
H      1.62225    -1.28967    -1.44455
C      1.34651     1.56250     2.46291
O      1.52647     0.34302     1.74817
H      0.54006     2.16249     2.03493
H      0.75534    -0.23226     1.94747
H      1.12133     1.36370     3.50978
H      2.27500     2.12651     2.40772
C     -1.69596    -3.85129    -1.74195
O     -0.65197    -3.02991    -1.25030
H     -2.42554    -4.08267    -0.95949
H     -0.98030    -2.12561    -1.17112
H     -2.22069    -3.38758    -2.58180
H     -1.25547    -4.78646    -2.08597
C     -2.26219     0.82199    -0.96035
O     -1.31501    -0.23922    -0.84534
H     -2.02010     1.63346    -0.27504
H     -0.42813     0.14944    -0.95915
H     -2.27851     1.21211    -1.97785
H     -3.24203     0.41941    -0.71594
C     -0.56921    -2.47915     2.10659
O     -0.74448    -1.07183     1.94926
H     -0.03209    -2.64357     3.03896
H     -1.18225    -0.89742     1.10506
H     -1.53425    -2.98408     2.16953
H      0.00192    -2.89942     1.28019
