 60
-1158.0920175854994
C     -0.02598     3.18520    -1.03606
O      0.53602     1.91697    -0.72271
H     -0.83688     3.09152    -1.75919
H     -0.17362     1.35038    -0.38132
H     -0.40816     3.66373    -0.13750
H      0.75425     3.81350    -1.46378
C      2.58122    -0.16051    -2.61611
O      1.49057     0.68555    -2.92945
H      2.73031    -0.85508    -3.44191
H      1.25583     1.19096    -2.12652
H      3.50134     0.41936    -2.51068
H      2.40814    -0.72658    -1.69967
C      3.53505     0.92414     0.67035
O      2.72166     0.23495     1.60286
H      2.92876     1.43276    -0.07728
H      2.29402    -0.51334     1.13707
H      4.13312     1.66091     1.20597
H      4.22136     0.23542     0.17092
C     -1.85090    -4.90230    -0.84086
O     -2.59272    -3.74997    -0.50976
H     -0.96526    -4.65790    -1.43744
H     -2.02663    -3.14984    -0.01586
H     -1.52459    -5.45109     0.04827
H     -2.48621    -5.55804    -1.43395
C     -1.65928    -0.92431     2.02196
O     -1.21648    -1.41368     0.75273
H     -2.45362    -0.19231     1.90074
H     -1.56364    -0.79258     0.07533
H     -2.02954    -1.76727     2.60240
H     -0.83731    -0.45314     2.56023
C      1.74090    -3.08358     0.68218
O      1.40385    -1.73946     0.39729
H      1.29968    -3.75393    -0.05739
H      0.43893    -1.64188     0.53133
H      2.82447    -3.19133     0.64246
H      1.39439    -3.38043     1.67475
C     -3.16319     1.11442    -1.01846
O     -1.94065     0.38652    -1.04798
H     -4.01565     0.43578    -1.00637
H     -1.70885     0.11857    -1.96911
H     -3.17185     1.72567    -0.11867
H     -3.24345     1.76041    -1.89202
C     -0.62603    -1.96034    -3.00149
O     -0.86227    -0.58358    -3.26994
H     -0.13917    -2.43828    -3.85313
H      0.01426    -0.14426    -3.31721
H      0.00594    -2.10224    -2.12273
H     -1.57406    -2.46467    -2.82643
C     -1.85697     3.13225     3.05367
O     -1.33172     2.32692     2.01621
H     -1.06277     3.54870     3.67645
H     -0.45389     2.02519     2.31448
H     -2.42582     3.95740     2.62150
H     -2.52819     2.55803     3.70021
C      1.82274     2.68397     3.70575
O      1.07473     1.67007     3.06359
H      1.71799     3.63416     3.17456
H      1.70767     1.12111     2.55172
H      1.45806     2.81064     4.72546
H      2.88124     2.42534     3.74653
