 36
-694.8535088749632
C      2.10180     1.72439     0.98905
O      2.81576     1.30457    -0.15525
H      1.08504     1.32651     1.02264
H      2.50077     0.42654    -0.39342
H      2.62619     1.43232     1.90242
H      2.04582     2.81387     0.97977
C      0.52700     2.09112    -2.33540
O     -0.08557     0.81457    -2.19819
H      1.50859     2.00626    -2.80194
H      0.56341     0.19203    -1.82544
H     -0.10963     2.70967    -2.96437
H      0.64608     2.57043    -1.36401
C      1.30017    -2.31084    -1.56650
O      1.35259    -1.08852    -0.84625
H      0.26468    -2.63079    -1.70280
H      0.91559    -1.23421     0.02865
H      1.75599    -2.16318    -2.54332
H      1.84285    -3.09327    -1.03608
C      1.29586    -1.27764     2.54105
O      0.28402    -1.38491     1.54513
H      1.27768    -2.15414     3.18954
H     -0.43159    -0.74859     1.78035
H      2.27792    -1.21270     2.07001
H      1.14100    -0.38476     3.14870
C     -2.49428    -0.88754    -0.95484
O     -2.17395     0.46115    -0.63240
H     -1.93408    -1.58542    -0.32788
H     -1.44397     0.72095    -1.23699
H     -3.55954    -1.04595    -0.79040
H     -2.26369    -1.09920    -1.99888
C     -2.77131     0.08153     2.64569
O     -1.59046     0.46709     1.95701
H     -3.54828    -0.22907     1.94673
H     -1.84209     0.63868     1.02370
H     -2.54306    -0.75318     3.30992
H     -3.14624     0.91082     3.24737
