 36
-694.8449347855324
C     -1.00487     1.68062     1.32189
O     -0.01018     2.41272     0.61911
H     -1.11230     2.06770     2.33621
H      0.85472     2.02092     0.85217
H     -1.95670     1.80918     0.80848
H     -0.77678     0.61314     1.37251
C      1.02838     1.78744    -2.39366
O     -0.32448     1.80781    -1.96381
H      1.33606     2.77529    -2.73816
H     -0.30352     2.16859    -1.05030
H      1.68966     1.47478    -1.58369
H      1.12790     1.08694    -3.22326
C     -2.37065    -2.18269     1.08069
O     -1.15351    -2.12533     1.83601
H     -2.53408    -3.19151     0.70084
H     -1.23198    -2.69651     2.59958
H     -3.21809    -1.88126     1.69832
H     -2.27322    -1.49995     0.24365
C      1.47318    -2.02869    -0.43966
O      1.30526    -1.48043     0.86265
H      1.42582    -3.11780    -0.40243
H      0.42066    -1.72436     1.18212
H      0.71469    -1.65424    -1.12493
H      2.45828    -1.74203    -0.80469
C     -1.79694    -1.02157    -3.21688
O     -1.40706    -0.68933    -1.89896
H     -0.96623    -0.92154    -3.92226
H     -1.06207     0.22395    -1.91991
H     -2.13203    -2.05952    -3.23088
H     -2.61668    -0.38822    -3.56695
C      2.41180     1.05132     2.64779
O      2.20053     0.97463     1.24862
H      2.93905     0.16902     3.01411
H      1.93105     0.04884     1.06379
H      3.01060     1.93344     2.86533
H      1.46323     1.13012     3.18612
