 36
-694.8526594883922
C      2.55866     1.21580    -3.22223
O      1.87948     1.45166    -2.00117
H      2.65887     2.16997    -3.73719
H      1.79131     0.61736    -1.52356
H      3.55884     0.80359    -3.05944
H      1.99822     0.53276    -3.86923
C      1.66920     2.05751     1.29015
O      0.93353     0.87152     1.56981
H      2.74098     1.87466     1.38367
H      1.12352     0.21815     0.87327
H      1.45740     2.42717     0.28717
H      1.38185     2.81516     2.01861
C      1.90400    -2.18193    -0.33866
O      1.21414    -0.95246    -0.47005
H      1.30869    -2.90198     0.22480
H      0.35338    -1.12822    -0.93610
H      2.12682    -2.60263    -1.31948
H      2.83537    -2.00023     0.19273
C     -1.54517    -0.02189    -2.16471
O     -1.11012    -1.27646    -1.62820
H     -1.86790     0.64742    -1.36680
H     -1.67906    -1.45545    -0.84603
H     -0.71941     0.44368    -2.70215
H     -2.36992    -0.17796    -2.85906
C     -1.46405    -2.12486     1.62934
O     -2.28647    -1.35233     0.77042
H     -1.29684    -3.10018     1.17328
H     -2.20041    -0.41979     1.06302
H     -0.49939    -1.64293     1.79780
H     -1.94933    -2.28123     2.59374
C     -2.20778     1.48189     2.89794
O     -1.72722     1.13014     1.61420
H     -3.28990     1.36126     2.91430
H     -0.74675     1.14007     1.65211
H     -1.77201     0.84821     3.67385
H     -1.97462     2.52317     3.12981
