 24
-463.230696875086
C      2.10170     0.84728     1.72061
O      0.74871     1.08548     1.36716
H      2.13875     0.57522     2.77365
H      0.72798     1.29465     0.40816
H      2.52968     0.03206     1.13077
H      2.70652     1.74266     1.57059
C     -0.42774     2.19599    -1.75689
O      0.53982     1.25923    -1.31143
H     -1.38467     2.05350    -1.24713
H      0.18171     0.36143    -1.48362
H     -0.06016     3.19730    -1.54080
H     -0.58824     2.10780    -2.83228
C     -2.08681    -0.81477     1.75416
O     -0.77609    -1.13214     1.31406
H     -2.73642    -1.66009     1.53517
H     -0.20950    -0.34911     1.48690
H     -2.10247    -0.63233     2.82954
H     -2.47554     0.07021     1.24278
C      0.41237    -2.22882    -1.71746
O     -0.51615    -1.21658    -1.36332
H      1.33027    -2.15201    -1.12800
H     -0.70379    -1.31093    -0.40422
H     -0.01731    -3.22034    -1.56831
H      0.66087    -2.11225    -2.77056
