 36
-694.8518428086984
C      1.31782     3.52380    -1.46195
O      1.26434     2.65266    -2.57478
H      1.64620     3.00301    -0.55824
H      0.50893     2.06976    -2.43990
H      2.03387     4.31218    -1.68539
H      0.34791     3.98551    -1.25904
C      1.81821    -2.87006     1.32430
O      0.92002    -1.79020     1.48989
H      2.83290    -2.57733     1.59878
H      1.22886    -1.06134     0.90935
H      1.50505    -3.68631     1.97355
H      1.82792    -3.22591     0.29093
C      2.99124     0.24525    -0.76459
O      1.69670     0.10368    -0.19541
H      3.70194     0.40387     0.04464
H      1.02120     0.39384    -0.83385
H      3.27725    -0.65977    -1.30535
H      3.02785     1.09440    -1.44364
C     -0.97121    -0.47363    -2.38932
O     -0.59152     0.71204    -1.69559
H     -1.87424    -0.29551    -2.97017
H     -1.20134     0.78921    -0.92246
H     -0.16200    -0.75212    -3.06260
H     -1.15574    -1.28581    -1.68646
C     -2.37328    -2.51469     2.32573
O     -1.73190    -2.05301     1.15141
H     -2.10590    -1.90354     3.19097
H     -0.76577    -2.06248     1.31708
H     -3.45073    -2.46348     2.17678
H     -2.10206    -3.55132     2.53710
C     -1.50783     1.17988     1.57988
O     -2.10167     0.52647     0.46341
H     -0.65959     0.60953     1.96037
H     -2.11480    -0.42956     0.67890
H     -1.15933     2.16529     1.26891
H     -2.23936     1.31233     2.37749
