 54
-1042.2861278759867
C      2.41475    -0.27972    -0.75242
O      2.66128    -0.87737     0.51473
H      2.09991    -1.05577    -1.44855
H      2.81788    -0.15515     1.15660
H      1.63462     0.48112    -0.70373
H      3.32672     0.17744    -1.13914
C     -1.42753     2.06708    -3.36683
O     -0.12967     1.69831    -2.91398
H     -2.16549     1.95121    -2.57199
H     -0.08483     1.96974    -1.97512
H     -1.43481     3.10346    -3.71112
H     -1.70973     1.42490    -4.20185
C     -2.09706    -2.58993    -0.93914
O     -2.25595    -1.36957    -1.64691
H     -2.90764    -2.68134    -0.21575
H     -1.50778    -1.29497    -2.27637
H     -2.14626    -3.44520    -1.61504
H     -1.14658    -2.61502    -0.40332
C      2.44467     2.37330     1.84083
O      2.60682     1.06964     2.38033
H      3.34018     2.61164     1.26820
H      1.80114     0.82065     2.85914
H      1.57759     2.43044     1.18330
H      2.34408     3.11438     2.63671
C     -0.08548    -0.68466     4.66913
O      0.18059    -0.14904     3.38791
H     -0.24721     0.13892     5.36231
H      0.25193    -0.90398     2.77055
H     -0.98574    -1.30530     4.65854
H      0.74539    -1.29199     5.03761
C     -2.44168     0.04937     1.33654
O     -2.41945     0.68530     0.06528
H     -1.74694    -0.78921     1.38574
H     -2.43397    -0.02432    -0.61501
H     -2.16171     0.76746     2.10520
H     -3.44773    -0.31337     1.55462
C     -0.70811     3.65775     0.08623
O     -0.39970     2.34387    -0.33446
H      0.10805     4.31830    -0.20721
H     -1.16659     1.77324    -0.09643
H     -1.63333     4.01416    -0.37084
H     -0.81060     3.70699     1.17348
C      1.19666    -3.36965     2.24117
O      0.68423    -2.18371     1.66444
H      2.04782    -3.15945     2.89434
H      1.42231    -1.78703     1.14159
H      0.41052    -3.84192     2.82985
H      1.51596    -4.07166     1.46937
C     -0.27413    -1.22813    -4.66132
O     -0.15823    -0.96465    -3.27311
H      0.22404    -2.16926    -4.88658
H     -0.00763    -0.00125    -3.16607
H     -1.32474    -1.30981    -4.95526
H      0.19027    -0.43791    -5.25261
