 42
-810.6659972520347
C     -1.40335    -2.28194     2.61444
O     -0.51714    -1.77080     1.63483
H     -2.18476    -1.55639     2.84266
H     -0.29838    -0.82740     1.87705
H     -1.86188    -3.19064     2.22851
H     -0.85694    -2.51585     3.52777
C     -1.18481    -2.61750    -1.65595
O     -1.20617    -1.36826    -0.97775
H     -0.23296    -3.12907    -1.51096
H     -1.10958    -1.54139    -0.02222
H     -1.99263    -3.26328    -1.30725
H     -1.32811    -2.43171    -2.71814
C      2.82544    -1.88715     0.67056
O      1.75395    -2.70096     0.24476
H      2.68865    -0.85088     0.34998
H      0.96818    -2.43886     0.74148
H      2.94737    -1.90550     1.75795
H      3.74452    -2.26404     0.22337
C      1.72377    -0.40732    -2.33719
O      0.78196     0.30729    -1.55649
H      2.66397     0.14421    -2.33558
H      0.02924    -0.28468    -1.34291
H      1.90198    -1.39851    -1.92536
H      1.38564    -0.50467    -3.37144
C     -2.80547     1.54141    -0.08600
O     -1.66992     2.18435     0.48121
H     -3.25119     0.88695     0.66345
H     -1.15120     2.55265    -0.26551
H     -3.54950     2.28080    -0.38338
H     -2.52374     0.94672    -0.95355
C      1.19949     1.25961     1.76171
O     -0.09672     0.73653     2.02889
H      1.26560     2.29866     2.08485
H     -0.74332     1.26743     1.49831
H      1.93681     0.68576     2.32411
H      1.43531     1.20034     0.70102
C      0.88496     3.82095    -1.39161
O     -0.11646     2.83790    -1.58038
H      1.56382     3.55011    -0.57778
H      0.30238     1.96109    -1.69726
H      1.47022     3.96667    -2.30136
H      0.39990     4.76197    -1.13752
