 36
-694.8497751828324
C      2.38428     1.09552    -2.97256
O      3.32744     1.22364    -1.92972
H      1.35943     1.23260    -2.61575
H      3.09576     0.58046    -1.25168
H      2.59909     1.85895    -3.71892
H      2.45034     0.11716    -3.45767
C      0.49043     2.84197    -0.14474
O      0.02682     1.50085    -0.16148
H      1.37605     2.92389    -0.77212
H     -0.75216     1.41538     0.43630
H     -0.27250     3.51900    -0.53249
H      0.74971     3.15518     0.86865
C      2.16594    -0.53212     1.50955
O      1.94865    -0.35926     0.11517
H      2.48502     0.40207     1.97460
H      1.25364     0.33040     0.02491
H      1.25933    -0.88004     2.00959
H      2.94837    -1.27474     1.63858
C     -0.59005    -1.62971    -1.71063
O     -0.06286    -2.19312    -0.51190
H     -0.58473    -0.54062    -1.66432
H      0.83074    -1.83174    -0.39791
H     -0.01018    -1.95650    -2.57279
H     -1.61405    -1.97978    -1.82951
C     -3.35956     1.13935     0.92062
O     -2.03764     1.03752     1.42256
H     -3.47388     0.57734    -0.01046
H     -1.88516     0.08868     1.62533
H     -4.07934     0.75958     1.64639
H     -3.57956     2.18745     0.73061
C     -2.50452    -2.54792     1.87661
O     -1.52387    -1.55920     1.62778
H     -2.04857    -3.53475     1.96718
H     -0.99549    -1.84300     0.84830
H     -3.00769    -2.31202     2.81277
H     -3.24628    -2.57911     1.07367
