 60
-1158.0931497579338
C     -0.96438    -0.81430     0.59564
O     -0.94271    -1.62630    -0.57788
H     -0.27604    -1.19711     1.34758
H     -0.18599    -1.31379    -1.11821
H     -0.68609     0.21639     0.38169
H     -1.96819    -0.81615     1.01495
C     -0.02712     2.68476    -2.64910
O      0.95340     2.12549    -1.78593
H      0.23206     2.43275    -3.67651
H      0.76451     2.47137    -0.88398
H     -1.02271     2.29316    -2.42589
H     -0.04553     3.77107    -2.55959
C      0.97830     2.31191     1.68493
O      0.23054     2.92630     0.64683
H      0.92729     1.22323     1.63355
H     -0.72459     2.79905     0.83505
H      2.02048     2.61489     1.58957
H      0.61924     2.63622     2.66396
C     -4.84974     2.03847    -1.53054
O     -3.53696     1.65367    -1.16775
H     -4.97179     3.10530    -1.34315
H     -3.41971     0.71844    -1.45381
H     -5.02899     1.85536    -2.59141
H     -5.59448     1.48914    -0.95073
C      0.91348    -4.09185     1.07822
O      2.22323    -4.36286     0.55429
H      0.28438    -3.60547     0.33567
H      2.14570    -4.83931    -0.27214
H      0.44542    -5.01325     1.42716
H      1.04296    -3.41662     1.92045
C      1.98464    -0.45763     3.96794
O      1.94152    -0.80662     2.59220
H      1.90444     0.62666     4.07329
H      2.68467    -1.40037     2.39368
H      1.14861    -0.91268     4.50657
H      2.91771    -0.77543     4.43909
C     -2.49517    -0.75662    -3.30177
O     -3.08106    -0.82202    -2.00730
H     -2.62189    -1.70468    -3.82431
H     -2.40694    -1.25062    -1.43618
H     -2.99512     0.02507    -3.87406
H     -1.43163    -0.52487    -3.23352
C      2.29996    -0.85207    -1.15697
O      1.12777    -0.50966    -1.87999
H      3.17821    -0.76005    -1.79884
H      1.09602     0.47548    -1.90259
H      2.44006    -0.20981    -0.28534
H      2.24516    -1.88484    -0.80899
C      5.01658    -2.37325     1.03004
O      3.82243    -2.60888     1.75517
H      5.40835    -3.30313     0.61402
H      3.33272    -3.30999     1.28750
H      4.84046    -1.67061     0.21227
H      5.75775    -1.94899     1.70528
C     -3.16546     3.61785     1.51122
O     -2.37924     2.54397     1.03060
H     -3.35149     4.35789     0.72939
H     -2.83121     2.19342     0.23389
H     -4.12546     3.25813     1.88588
H     -2.63664     4.10359     2.33076
