 60
-1158.1024089645646
C     -1.35077     2.75304    -4.36219
O     -0.64431     1.64625    -3.83039
H     -0.66405     3.54222    -4.67166
H     -0.06724     1.98878    -3.11003
H     -1.91464     2.42496    -5.23440
H     -2.04718     3.16622    -3.62717
C      2.15734     2.39141    -1.69890
O      0.74753     2.48479    -1.75481
H      2.47059     1.37188    -1.46438
H      0.40644     2.32517    -0.84780
H      2.56835     2.67669    -2.66695
H      2.56823     3.06836    -0.94636
C      3.14746     0.31481     1.16113
O      2.63230    -0.99959     0.99599
H      3.38491     0.47609     2.21063
H      2.42512    -1.12284     0.04361
H      4.05992     0.44288     0.57572
H      2.42190     1.06620     0.85104
C     -0.45319     1.66078     4.03160
O      0.61498     1.24955     3.17711
H     -0.05962     2.01795     4.98541
H      0.72705     0.29018     3.25609
H     -0.99017     2.47869     3.55028
H     -1.15057     0.84072     4.19938
C     -1.09340    -2.17577    -0.12106
O     -0.65020    -1.94681    -1.44910
H     -0.84207    -1.34355     0.53883
H     -1.25853    -1.29853    -1.86280
H     -2.17531    -2.31603    -0.08628
H     -0.61577    -3.07528     0.26672
C      1.66111    -2.38497     3.87092
O      0.98359    -1.55923     2.93592
H      2.41503    -1.81266     4.41504
H      1.59682    -1.43162     2.16734
H      0.93778    -2.78306     4.58147
H      2.14654    -3.21548     3.35916
C     -3.26832    -0.53888    -3.50222
O     -2.21312    -0.14747    -2.64695
H     -2.90093    -0.79524    -4.49792
H     -1.66208     0.50098    -3.13658
H     -3.75944    -1.41151    -3.07362
H     -4.00473     0.26166    -3.59562
C      2.19035    -0.95853    -2.90772
O      1.91187    -1.29751    -1.55619
H      1.57491    -0.12246    -3.24033
H      0.97632    -1.59813    -1.54727
H      3.24113    -0.68047    -2.98406
H      2.01031    -1.81189    -3.56254
C     -2.42113    -2.65379     3.38681
O     -1.79320    -1.39659     3.22341
H     -3.43184    -2.48866     3.75963
H     -0.84990    -1.54744     3.06836
H     -2.49047    -3.19655     2.43955
H     -1.88713    -3.28324     4.10414
C     -1.46586     1.44975     0.69191
O     -0.15416     2.00891     0.68983
H     -1.68802     0.99953    -0.27595
H      0.24299     1.79560     1.55627
H     -1.56083     0.68730     1.46655
H     -2.20514     2.22977     0.88354
