 42
-810.6601569062815
C     -3.23761    -3.47580     0.10282
O     -2.37671    -2.38102    -0.16184
H     -2.75075    -4.21841     0.74184
H     -2.31370    -1.83533     0.65345
H     -4.15418    -3.14263     0.59122
H     -3.49983    -3.94564    -0.84333
C     -0.72263    -1.50170     2.69414
O     -1.81470    -0.89330     2.01064
H      0.13007    -1.64645     2.02812
H     -1.46683    -0.05995     1.63952
H     -0.40856    -0.88925     3.53891
H     -1.04603    -2.47203     3.06597
C      0.27566    -3.60430    -1.97646
O      0.16312    -2.90335    -0.75295
H      1.33000    -3.77731    -2.18268
H     -0.79378    -2.75845    -0.57970
H     -0.22938    -4.57018    -1.92029
H     -0.15599    -3.03256    -2.80160
C     -1.35131     1.29369    -0.53997
O     -0.54576     1.03165     0.60757
H     -2.18636     1.91188    -0.22226
H      0.21391     0.48409     0.30082
H     -0.77756     1.82333    -1.29735
H     -1.74331     0.36672    -0.96148
C      2.37058     2.33220     1.85868
O      1.31908     3.07785     1.25872
H      2.16760     2.15875     2.91673
H      0.51767     2.53810     1.30239
H      2.51406     1.37140     1.36064
H      3.28295     2.91642     1.76829
C      1.87249    -0.19155    -1.59207
O      1.38936    -0.58745    -0.31572
H      2.54170    -0.94490    -2.00768
H      0.99188    -1.47978    -0.42926
H      1.05146    -0.03497    -2.29415
H      2.42023     0.74108    -1.49157
C      1.36118     4.56190    -1.90388
O      1.62427     3.23216    -1.49993
H      2.03254     5.27390    -1.41557
H      1.56419     3.19947    -0.53160
H      1.51143     4.62771    -2.98092
H      0.32992     4.85395    -1.67979
