 36
-694.8464971820217
C     -2.79180     1.83119    -2.53389
O     -2.59449     1.25669    -1.25288
H     -2.82784     2.92305    -2.48475
H     -1.71099     1.49667    -0.94149
H     -2.00314     1.54095    -3.23490
H     -3.74365     1.47000    -2.92162
C      3.51417     1.10735     0.47151
O      2.27432     0.51585     0.12061
H      4.33291     0.39659     0.34445
H      2.13195    -0.27214     0.69495
H      3.69070     1.95786    -0.18417
H      3.50814     1.45258     1.50792
C      2.03477    -2.80677     1.33573
O      1.62943    -1.49763     1.73297
H      1.62359    -3.05998     0.35969
H      0.66100    -1.46299     1.76627
H      3.12214    -2.81116     1.28116
H      1.71777    -3.54498     2.07332
C     -0.06846    -0.91652    -2.23278
O      0.04756    -1.93560    -1.25244
H      0.52888    -0.04314    -1.96827
H     -0.49865    -1.69649    -0.49853
H      0.30593    -1.31707    -3.17499
H     -1.10545    -0.61143    -2.37099
C     -0.00159     2.67952     1.08319
O     -0.10380     1.64776     0.11217
H     -0.98383     3.12900     1.21191
H      0.79745     1.26007    -0.00203
H      0.33851     2.28121     2.04123
H      0.69985     3.44581     0.75305
C     -2.59333    -0.91497     1.31353
O     -1.17696    -0.75422     1.22325
H     -2.99210    -0.32920     2.14359
H     -0.98909     0.14537     0.91214
H     -3.07624    -0.60055     0.38948
H     -2.79403    -1.96884     1.49210
