 48
-926.4800257555198
C     -2.57572    -2.50525     2.15284
O     -1.65766    -1.65849     1.48920
H     -2.15442    -2.78917     3.11637
H     -2.05453    -1.42403     0.61916
H     -3.52414    -1.99489     2.32802
H     -2.77364    -3.41203     1.57605
C     -3.95644    -1.47524    -1.31295
O     -2.65785    -1.11328    -0.88497
H     -4.05407    -1.36217    -2.39299
H     -2.42253    -0.25381    -1.31633
H     -4.13217    -2.52033    -1.05946
H     -4.71915    -0.86057    -0.82730
C     -2.19200     2.21151    -0.83809
O     -2.00679     1.22645    -1.84989
H     -2.58641     3.12890    -1.27494
H     -1.09602     1.37231    -2.19734
H     -2.90372     1.83781    -0.10224
H     -1.24640     2.42585    -0.33953
C      0.34965    -3.45339    -0.21889
O      0.69477    -2.76907     0.98013
H     -0.44142    -2.92249    -0.74947
H     -0.13691    -2.34995     1.29182
H      1.23014    -3.51533    -0.85804
H      0.01410    -4.46630     0.00743
C      3.84690    -1.62399     1.15566
O      2.66667    -1.03816     0.63642
H      4.21292    -2.40846     0.49022
H      1.94307    -1.69959     0.74588
H      4.61568    -0.85709     1.24149
H      3.67052    -2.05760     2.14257
C      1.36836     0.64047    -2.66252
O      0.50761     1.75575    -2.46924
H      0.76343    -0.21193    -2.97288
H      0.89236     2.30768    -1.76133
H      2.09367     0.85506    -3.44749
H      1.89877     0.38392    -1.74513
C      1.30867     4.34743     0.31468
O      1.44594     3.08271    -0.30882
H      0.26207     4.53563     0.56938
H      1.66147     2.43890     0.40163
H      1.89960     4.39737     1.22966
H      1.65064     5.12267    -0.36804
C      0.74895     0.96547     2.34769
O      1.90100     1.30960     1.58917
H     -0.09484     0.70477     1.70387
H      2.26562     0.46272     1.24888
H      0.95883     0.11609     2.99646
H      0.47207     1.82120     2.96208
