 48
-926.4772248341217
C      2.15950    -3.43690    -0.29455
O      1.58985    -2.20255     0.09864
H      2.14730    -4.15086     0.53064
H      0.66113    -2.38732     0.37095
H      1.61498    -3.86852    -1.13740
H      3.19481    -3.27243    -0.59456
C     -1.10745    -1.51813    -2.45485
O     -2.17524    -1.77587    -1.55285
H     -0.68441    -0.52502    -2.29885
H     -2.55919    -0.90360    -1.31950
H     -0.31720    -2.25269    -2.30411
H     -1.45859    -1.59688    -3.48542
C     -1.57457    -1.89399     1.69565
O     -0.95957    -2.65259     0.66132
H     -2.64895    -2.07440     1.72644
H     -1.47393    -2.47499    -0.15933
H     -1.14945    -2.20752     2.64692
H     -1.40371    -0.82451     1.56554
C      3.60253     0.04117    -1.28979
O      2.18732    -0.01065    -1.23707
H      3.90418     0.95354    -1.80199
H      1.95245    -0.81625    -0.72781
H      4.03733     0.04389    -0.28793
H      4.00519    -0.80645    -1.84605
C      1.92919     3.04982    -0.11664
O      0.93650     2.23063    -0.71818
H      1.57393     4.07936    -0.09390
H      1.38118     1.38234    -0.95803
H      2.14281     2.72040     0.90183
H      2.85416     3.02605    -0.69186
C     -2.68349     1.56451    -2.01319
O     -2.90328     0.72403    -0.88822
H     -2.83395     0.98743    -2.92651
H     -2.33927     1.07450    -0.17285
H     -3.38958     2.39686    -2.01712
H     -1.66535     1.95683    -2.01288
C     -1.63723     3.11377     1.32004
O     -1.17567     1.87275     0.81524
H     -0.96347     3.49474     2.08884
H     -0.39851     2.06182     0.23446
H     -1.72179     3.85733     0.52596
H     -2.61918     2.96459     1.76550
C      1.06416    -0.16603     3.29882
O      0.82696     1.15731     2.85745
H      2.01931    -0.18163     3.82320
H      0.06656     1.16603     2.26734
H      0.29146    -0.49893     3.99957
H      1.11680    -0.87115     2.46637
