 36
-694.8498658433556
C      0.10427     2.42441    -0.80692
O     -0.79453     1.48531    -1.39661
H      0.60961     2.01295     0.06525
H     -1.24526     0.98358    -0.70477
H      0.84952     2.69190    -1.55436
H     -0.43250     3.33265    -0.52893
C      1.27918    -2.34864    -0.08286
O      0.09584    -2.17936    -0.86389
H      1.01816    -2.93075     0.79873
H      0.33424    -1.65690    -1.66223
H      2.03228    -2.89797    -0.64678
H      1.69687    -1.39124     0.23299
C      3.15127     0.55284     3.02542
O      2.44020     0.75188     1.82301
H      4.18681     0.85076     2.86450
H      1.49768     0.70032     2.02585
H      2.74294     1.15565     3.84263
H      3.13949    -0.49786     3.33247
C     -0.17361    -0.61852    -4.02802
O      0.52434    -0.38449    -2.81628
H     -1.20000    -0.94530    -3.83753
H      0.10810     0.38762    -2.38156
H     -0.20291     0.28271    -4.64174
H      0.34712    -1.39797    -4.57998
C     -2.99666    -1.17818     0.01564
O     -1.69195    -0.73853     0.35654
H     -3.09457    -2.24975     0.18592
H     -1.04950    -1.35549    -0.08699
H     -3.71371    -0.65040     0.63909
H     -3.20339    -0.96603    -1.03511
C     -1.16425     1.75020     2.64135
O     -0.32098     0.70090     2.20810
H     -1.39659     2.43369     1.82258
H     -0.82746     0.12292     1.61131
H     -2.10232     1.36506     3.04762
H     -0.64472     2.30217     3.42195
