 36
-694.8443095696914
C     -0.22318     2.62918    -0.38191
O      0.55797     1.65355     0.28657
H     -1.03351     2.94504     0.27353
H      1.15972     1.23039    -0.36239
H      0.38016     3.50262    -0.63903
H     -0.65993     2.22222    -1.29745
C      3.59186     0.65141    -1.29070
O      2.20921     0.36774    -1.40846
H      3.96998     0.36505    -0.30649
H      2.10580    -0.60378    -1.29921
H      4.16312     0.11577    -2.05210
H      3.74458     1.72029    -1.43153
C      1.85570    -3.11474    -2.10686
O      1.76425    -2.23293    -1.00161
H      2.89955    -3.18383    -2.40857
H      0.83152    -2.24092    -0.68925
H      1.50561    -4.11325    -1.84043
H      1.26848    -2.75457    -2.95501
C      0.57012    -0.69492     2.54207
O     -0.56261    -0.22248     1.81905
H      0.23342    -1.13790     3.47826
H     -0.26225     0.56273     1.31059
H      1.10961    -1.45062     1.96434
H      1.25673     0.12397     2.76239
C     -1.36347    -1.06471    -1.29767
O     -0.79786    -1.90017    -0.28950
H     -2.16753    -0.45298    -0.89047
H     -0.84959    -1.39789     0.54918
H     -0.60971    -0.40440    -1.73061
H     -1.76390    -1.69890    -2.08661
C     -3.89241     1.32438     2.02643
O     -3.55662     2.06138     0.85511
H     -4.82263     0.76724     1.89253
H     -4.21880     2.73969     0.72271
H     -3.08549     0.61806     2.19896
H     -3.98098     1.97444     2.90028
