 60
-1158.0935782180225
C     -1.10683     3.00938    -4.67598
O     -0.18542     3.56364    -3.76050
H     -1.00019     1.92319    -4.74922
H     -0.45635     3.28830    -2.87780
H     -2.14145     3.23598    -4.40177
H     -0.91606     3.43953    -5.65864
C     -0.38955    -2.08525     4.36990
O      0.85505    -2.16565     3.69839
H     -1.20807    -2.34514     3.69669
H      0.74985    -1.68487     2.85201
H     -0.38609    -2.79118     5.19706
H     -0.57277    -1.08000     4.75980
C      1.43414     0.50293    -3.57070
O      0.30692     0.18895    -2.76396
H      1.35112     1.50111    -3.99478
H     -0.01341     0.99751    -2.32129
H      2.35485     0.43738    -2.98510
H      1.49543    -0.22256    -4.38138
C      1.31384    -0.95480     0.45172
O      0.68369    -0.46696     1.62873
H      1.44566    -0.16450    -0.28513
H      1.22149     0.28512     1.96694
H      2.29317    -1.37507     0.68419
H      0.69715    -1.73438     0.01421
C      4.04300    -1.10365     4.50843
O      2.76832    -0.49688     4.65837
H      4.12774    -1.99122     5.13631
H      2.08940    -1.17060     4.44456
H      4.22543    -1.39070     3.46903
H      4.80054    -0.38545     4.81513
C     -2.20190    -1.92254     0.93010
O     -2.62271    -1.78129    -0.41822
H     -1.66740    -1.03941     1.27936
H     -1.91329    -2.10649    -1.00423
H     -3.08450    -2.07156     1.55076
H     -1.54949    -2.78973     1.05145
C     -3.39626     0.39141    -2.70912
O     -3.00941     0.67171    -1.36591
H     -3.86484     1.28014    -3.13215
H     -2.91957    -0.19880    -0.91543
H     -2.52910     0.12275    -3.31846
H     -4.11344    -0.42827    -2.74236
C     -0.44692    -3.12619    -3.26085
O     -0.59253    -2.25801    -2.15230
H     -0.95473    -4.06184    -3.03597
H     -0.25281    -1.37549    -2.40094
H     -0.88859    -2.69493    -4.16201
H      0.60732    -3.33772    -3.45494
C      1.44250     2.41614     3.37164
O      2.19437     1.36542     2.78798
H      0.68736     2.03232     4.06134
H      2.53151     0.80092     3.51789
H      2.08922     3.11296     3.90481
H      0.93921     2.95771     2.57216
C     -0.36304     2.29267    -0.04952
O     -0.88861     2.22532    -1.37298
H     -0.54218     1.36919     0.49802
H     -1.76224     1.76268    -1.32841
H      0.71183     2.47096    -0.09902
H     -0.83129     3.11660     0.48957
