 36
-694.8515476383209
C     -1.71970     0.08490    -2.19028
O     -0.58481     0.93682    -2.10461
H     -2.11886    -0.14289    -1.20127
H     -0.71662     1.50005    -1.31696
H     -2.50024     0.55394    -2.79119
H     -1.42640    -0.84850    -2.67006
C      2.02977     1.12641     1.52752
O      1.57401     0.30879     2.59407
H      3.07648     1.36392     1.71627
H      0.62986     0.16777     2.47663
H      1.95611     0.62263     0.56193
H      1.47425     2.06561     1.47505
C      2.24673    -0.85753    -3.10994
O      1.49781    -0.70188    -1.91624
H      3.20248    -1.31511    -2.86132
H      0.80470    -0.02315    -2.07417
H      1.72069    -1.49962    -3.82100
H      2.43405     0.10925    -3.58100
C      1.41056    -2.67816     0.98547
O      0.42912    -2.02435     0.18569
H      1.91858    -3.45323     0.41043
H      0.87500    -1.63828    -0.59689
H      2.14365    -1.96841     1.36433
H      0.90859    -3.15171     1.82829
C     -2.33997     2.76088     0.42394
O     -1.09802     2.09848     0.26686
H     -2.51516     3.03431     1.46671
H     -1.08770     1.31694     0.84778
H     -2.31816     3.67027    -0.17254
H     -3.17147     2.13764     0.08391
C     -2.23720    -1.03023     2.05518
O     -1.11522    -0.35425     1.51571
H     -1.94306    -1.66581     2.89190
H     -0.58303    -1.00706     0.99607
H     -2.95068    -0.28813     2.40829
H     -2.71771    -1.64616     1.29270
