 36
-694.8515801982005
C      1.12814     2.07203     0.38478
O      0.31049     1.96247    -0.77357
H      1.60935     1.12129     0.61889
H      0.82161     1.42609    -1.41864
H      1.89314     2.83572     0.24317
H      0.50502     2.37146     1.22853
C      2.99809     0.76429    -2.76847
O      1.77700     0.27491    -2.24601
H      2.78407     1.59908    -3.43448
H      1.98474    -0.44714    -1.61357
H      3.66160     1.10958    -1.97169
H      3.51614    -0.00909    -3.33956
C     -0.39179    -1.44603     2.22343
O     -0.26385    -1.47615     0.80827
H     -1.36664    -1.81918     2.52943
H     -0.89988    -0.83855     0.43531
H      0.37852    -2.08856     2.64799
H     -0.26528    -0.43618     2.61431
C     -2.17302     0.05875    -1.64676
O     -1.82342     0.47605    -0.33007
H     -1.28092    -0.21217    -2.21169
H     -1.11515     1.16064    -0.42182
H     -2.83128    -0.80335    -1.57122
H     -2.69062     0.86177    -2.16851
C      2.51479    -2.89451    -0.50478
O      2.12221    -1.54609    -0.32166
H      1.70701    -3.48773    -0.93832
H      1.25876    -1.54820     0.15241
H      3.37119    -2.92092    -1.17760
H      2.80597    -3.34333     0.44759
C     -2.93554     1.56835     2.73213
O     -3.14452     0.28907     2.17082
H     -3.36398     1.57738     3.73270
H     -2.83998     0.33265     1.25785
H     -1.86738     1.79600     2.81219
H     -3.40961     2.35828     2.14295
