 24
-463.22904359757763
C      2.75014     0.54357    -0.51502
O      1.70980     0.64409     0.44141
H      2.38506     0.14779    -1.46643
H      1.35928    -0.25974     0.59050
H      3.15968     1.53749    -0.68269
H      3.55148    -0.10260    -0.15327
C     -1.01623     2.73021     0.51995
O     -0.51312     1.84822    -0.46823
H     -0.36217     3.59445     0.64213
H      0.36930     1.54953    -0.16020
H     -1.99680     3.07911     0.20308
H     -1.11287     2.22658     1.48484
C     -2.80012    -0.57614     0.23302
O     -1.66650    -0.58202    -0.61594
H     -2.53973    -0.25941     1.24642
H     -1.35138     0.34365    -0.69139
H     -3.57325     0.09143    -0.14996
H     -3.20511    -1.58510     0.27512
C      0.98737    -2.86306    -0.19935
O      0.48566    -1.74589     0.51150
H      0.37394    -3.74771    -0.02027
H     -0.35757    -1.47178     0.09143
H      1.01724    -2.66500    -1.27333
H      1.99799    -3.06630     0.15020
