 36
-694.8541790719472
C      0.55696     3.30904     2.03070
O      1.18206     2.79228     0.86684
H      1.32450     3.53919     2.76633
H      0.50195     2.78511     0.15594
H      0.00554     4.22226     1.80322
H     -0.14105     2.58309     2.45934
C     -0.30812     2.39784    -2.31156
O     -0.70734     2.39924    -0.95344
H     -0.98095     3.01719    -2.90576
H     -1.13630     1.53700    -0.76284
H      0.70163     2.80445    -2.39959
H     -0.30959     1.38532    -2.71910
C     -0.84872    -1.23593     2.58776
O     -0.28514    -1.41908     1.30008
H     -0.13990    -1.53255     3.36034
H      0.52726    -0.84925     1.24971
H     -1.12045    -0.19000     2.74431
H     -1.74073    -1.85121     2.66640
C      0.50437    -4.50212    -0.63755
O      0.07603    -3.18062    -0.92101
H     -0.32205    -5.12794    -0.28715
H     -0.11095    -2.73073    -0.08758
H      0.89524    -4.93266    -1.55919
H      1.29940    -4.51834     0.11495
C     -2.04608    -0.75125    -1.70287
O     -1.74697    -0.00315    -0.52930
H     -1.16916    -1.28441    -2.07057
H     -1.30629    -0.59454     0.10473
H     -2.84234    -1.46973    -1.50639
H     -2.38878    -0.05939    -2.47070
C      2.12607    -0.07857    -0.44636
O      1.71969     0.17566     0.90018
H      3.17160     0.19348    -0.58291
H      1.59824     1.14919     0.98447
H      2.00744    -1.14057    -0.65538
H      1.51405     0.48886    -1.14779
