 36
-694.8569125216306
C     -1.99961     1.42824    -2.54422
O     -1.76918     0.77801    -1.30926
H     -2.33746     2.44535    -2.35137
H     -1.48630    -0.14121    -1.51028
H     -1.08781     1.47070    -3.14498
H     -2.77174     0.91378    -3.11746
C      2.04397    -0.26145    -0.88022
O      1.60119    -1.61044    -0.76138
H      3.12416    -0.20345    -0.74817
H      1.56859    -1.80547     0.20162
H      1.80127     0.10421    -1.87871
H      1.55968     0.38452    -0.14655
C     -0.10294    -2.47944     1.95429
O      1.17209    -1.85066     1.86678
H      0.02806    -3.51607     2.25930
H      1.05456    -0.94556     2.22334
H     -0.73381    -1.97037     2.68334
H     -0.60678    -2.45626     0.98524
C     -1.00374     3.32841     0.71163
O     -0.56715     1.98640     0.68231
H     -0.91214     3.79250    -0.27178
H     -1.04083     1.53042    -0.04855
H     -2.04431     3.39818     1.03479
H     -0.38106     3.88611     1.41070
C     -0.84955    -2.20765    -3.14991
O     -0.83659    -1.64412    -1.85345
H     -1.86905    -2.18156    -3.53075
H      0.07612    -1.73283    -1.49553
H     -0.20359    -1.64975    -3.83341
H     -0.51603    -3.24575    -3.12562
C      1.75829     1.46862     3.00370
O      0.65983     0.66364     2.62119
H      2.24736     1.01294     3.86315
H      0.15988     1.15273     1.93501
H      2.48267     1.55312     2.18870
H      1.43176     2.47217     3.28237
