 36
-694.8549444863677
C      1.16581    -1.50282    -2.72662
O      0.17490    -0.62055    -2.20244
H      0.80661    -1.97092    -3.64492
H     -0.31345    -1.07201    -1.49462
H      2.05616    -0.91897    -2.96123
H      1.43297    -2.27177    -2.00224
C      2.06499     0.71410     0.02262
O      1.33965     1.42129    -0.97613
H      2.23747    -0.31926    -0.27303
H      0.89865     0.75026    -1.53955
H      3.02402     1.20363     0.17970
H      1.52168     0.71417     0.96806
C      1.59652    -2.82136     1.78769
O      1.16909    -2.87696     0.44290
H      0.80981    -3.12961     2.48246
H      0.31650    -2.42649     0.38877
H      2.44719    -3.49046     1.90951
H      1.91691    -1.81005     2.06183
C     -1.45001     3.26650    -0.87545
O     -0.54796     2.90601     0.16589
H     -1.39262     4.33676    -1.07375
H      0.23981     2.50077    -0.26332
H     -1.21828     2.71794    -1.78959
H     -2.46741     3.02227    -0.56705
C     -2.54046    -1.64287    -0.20697
O     -1.17756    -1.39775     0.10796
H     -2.86819    -0.97891    -1.00871
H     -1.16121    -0.58790     0.67878
H     -2.64936    -2.67736    -0.52293
H     -3.16757    -1.46319     0.66544
C     -0.68522     0.88501     2.82524
O     -1.29247     0.76171     1.54687
H     -1.45225     0.93751     3.59717
H     -1.12720     1.60210     1.05750
H     -0.05039     0.01871     3.02352
H     -0.06977     1.78386     2.86746
