 36
-694.8546444650825
C     -1.05673     2.47213    -0.90197
O     -1.72513     1.37717    -0.27762
H     -1.14005     2.36800    -1.98440
H     -1.22347     1.16605     0.52777
H     -1.51640     3.41857    -0.60911
H      0.00075     2.48564    -0.63078
C      3.53106     0.62233     0.94645
O      2.30802     1.09965     0.40600
H      3.93353     1.37642     1.61846
H      2.08519     0.54106    -0.37837
H      3.38062    -0.30387     1.50686
H      4.25763     0.43644     0.15609
C      1.73366    -1.90118    -0.99160
O      1.45543    -0.57847    -1.43275
H      2.72401    -1.91462    -0.53827
H      0.51302    -0.55016    -1.71732
H      1.00358    -2.23379    -0.25524
H      1.73952    -2.59628    -1.83212
C     -2.40070    -1.51794     1.44689
O     -1.02329    -1.74333     1.23013
H     -2.90735    -2.48225     1.46822
H     -0.55625    -0.91367     1.39163
H     -2.58999    -1.00848     2.39608
H     -2.84340    -0.91926     0.64680
C     -1.83896    -1.77792    -2.04890
O     -1.10987    -0.56106    -2.06043
H     -1.51566    -2.37534    -2.89891
H     -1.52478     0.07117    -1.44088
H     -1.66192    -2.33221    -1.12795
H     -2.90917    -1.58802    -2.15400
C     -0.00536     1.54466     2.86511
O      0.08254     0.75935     1.69187
H     -0.08378     2.60396     2.61514
H      0.96112     0.92251     1.25523
H     -0.89201     1.24195     3.41816
H      0.87104     1.39406     3.49540
