 54
-1042.285248612235
C      2.70702     0.53335     0.85953
O      1.38251     0.94560     0.53726
H      2.67456    -0.46351     1.29019
H      1.38378     1.92941     0.40267
H      3.32649     0.51322    -0.03910
H      3.15045     1.22052     1.58013
C     -3.13015     1.55748    -0.36392
O     -2.71062     1.59809     0.99054
H     -3.84293     0.74592    -0.52863
H     -2.14628     0.82501     1.17966
H     -3.63555     2.49326    -0.59796
H     -2.28210     1.42932    -1.03834
C      0.95754     0.38169    -2.84352
O     -0.10851     0.48760    -1.90904
H      1.56443     1.28772    -2.85345
H      0.26974     0.52373    -1.01540
H      1.59966    -0.47057    -2.62376
H      0.52451     0.25123    -3.83225
C      1.16512    -4.12844    -2.37293
O      0.91562    -3.03596    -1.51185
H      1.17515    -3.80984    -3.41834
H      0.03174    -2.67032    -1.73639
H      2.14017    -4.55036    -2.13282
H      0.40695    -4.90614    -2.24912
C      2.37537    -4.19772     1.27005
O      1.89558    -2.89181     1.03420
H      1.58817    -4.94771     1.15251
H      1.52059    -2.87377     0.14029
H      3.19540    -4.45772     0.59432
H      2.74667    -4.25136     2.29303
C     -2.39381    -2.02978    -1.05947
O     -1.41685    -1.90167    -2.08639
H     -2.23080    -1.31373    -0.25531
H     -1.13068    -0.97041    -2.11989
H     -3.39237    -1.89344    -1.47856
H     -2.33767    -3.04031    -0.65309
C     -0.70051     3.21223     2.99507
O     -1.06685     3.59743     1.67561
H     -0.66076     2.12566     3.08596
H     -1.74494     2.95795     1.36828
H      0.28354     3.62327     3.21892
H     -1.41404     3.60364     3.72081
C     -0.59618    -1.19705     2.58784
O     -0.78743    -0.23297     1.56057
H     -0.74959    -0.74290     3.57132
H      0.07159     0.16325     1.32728
H     -1.32795    -1.99520     2.45717
H      0.39927    -1.63255     2.53725
C      0.65306     3.83089    -1.18421
O      1.08818     3.50594     0.13179
H      0.19326     4.81865    -1.20441
H      0.32659     3.69347     0.73039
H      1.52117     3.84415    -1.84015
H     -0.07071     3.10297    -1.55625
