 60
-1158.0978017048237
C      1.52068    -0.82662    -1.54101
O      0.20918    -1.37580    -1.61837
H      2.09015    -1.14299    -2.41263
H     -0.02845    -1.65853    -0.71263
H      1.48711     0.26027    -1.51597
H      2.03758    -1.18028    -0.65185
C      1.40110     1.05130    -5.26588
O      0.51784     1.65167    -4.33271
H      1.65343     0.02587    -4.97956
H     -0.13333     0.99915    -4.04195
H      0.97648     1.03545    -6.27391
H      2.32125     1.63488    -5.28930
C      1.06180     3.04562    -1.08450
O      0.14187     2.14588    -0.48940
H      0.77084     4.07988    -0.88807
H     -0.67021     2.15261    -1.04295
H      2.04453     2.87728    -0.64291
H      1.13044     2.88858    -2.16078
C     -2.17686     3.22107    -2.95685
O     -2.04023     2.16150    -2.01832
H     -1.28452     3.32046    -3.57451
H     -1.94231     1.32754    -2.51650
H     -3.04066     3.05740    -3.60389
H     -2.33340     4.14477    -2.40294
C      2.72424    -3.34362     4.93911
O      1.56416    -2.70705     4.43935
H      2.41537    -4.19862     5.54129
H      1.82852    -2.11627     3.71955
H      3.36617    -3.70590     4.13101
H      3.31116    -2.67110     5.57188
C     -0.30247    -3.48830     1.22437
O     -0.17772    -2.11495     0.88089
H      0.10905    -3.67711     2.21611
H     -0.69633    -1.57884     1.54316
H     -1.34955    -3.79185     1.20810
H      0.24694    -4.07654     0.49189
C     -2.46240    -1.02152    -3.60638
O     -1.40356    -0.16452    -3.22138
H     -2.88981    -1.51693    -2.73470
H     -0.81298    -0.67545    -2.60153
H     -3.23600    -0.42790    -4.09141
H     -2.10250    -1.77604    -4.30536
C     -1.15934    -0.84234     4.01699
O     -1.28463    -0.59475     2.62018
H     -1.95429    -0.33065     4.56172
H     -1.08667     0.35723     2.45680
H     -1.24456    -1.91071     4.20261
H     -0.19555    -0.50662     4.39708
C      2.19811     0.24328     2.09133
O      2.17415    -1.17717     2.12589
H      1.60149     0.66919     2.89624
H      1.44357    -1.48737     1.57242
H      3.22973     0.56222     2.22949
H      1.83289     0.64088     1.14289
C     -2.01218     2.67639     1.87896
O     -0.78649     1.96125     2.02417
H     -1.88705     3.70822     2.20991
H     -0.32951     2.02775     1.16047
H     -2.33846     2.67006     0.83811
H     -2.78036     2.20324     2.49142
