 30
-579.0437082314457
C      2.56076    -2.28273    -0.27581
O      2.01904    -1.04646    -0.71136
H      3.61914    -2.17743    -0.03382
H      2.00782    -0.44647     0.06714
H      2.03229    -2.65470     0.60360
H      2.46029    -3.01129    -1.07951
C     -0.34709    -0.91060    -3.16131
O     -0.39876    -1.31117    -1.80597
H     -0.12912     0.15705    -3.24752
H      0.51488    -1.24206    -1.44842
H      0.42195    -1.46654    -3.69968
H     -1.30970    -1.11669    -3.62616
C      2.38963     1.83459     1.38815
O      1.78423     0.55766     1.41608
H      3.43196     1.71994     1.09459
H      0.83920     0.68344     1.65034
H      1.89487     2.49719     0.67380
H      2.36010     2.30171     2.37450
C     -1.39596     2.19155     2.02865
O     -0.82850     0.91097     1.84603
H     -0.89202     2.68667     2.85706
H     -1.36862     0.45072     1.16652
H     -1.28681     2.80492     1.13001
H     -2.45806     2.11795     2.26847
C     -3.17820     0.38987    -0.85004
O     -2.16325    -0.26800    -0.12126
H     -3.73518    -0.31597    -1.46853
H     -1.56796    -0.70732    -0.76844
H     -3.87302     0.85000    -0.14857
H     -2.76484     1.16907    -1.49554
