 18
-347.41038188934556
C     -1.37110     1.97934     0.12121
O     -0.01116     2.34747    -0.13558
H     -1.90207     2.79387     0.61447
H      0.00317     3.07413    -0.75840
H     -1.87649     1.70821    -0.80541
H     -1.35785     1.11246     0.77566
C     -1.34332    -2.79814    -0.07913
O     -1.14639    -1.44268     0.27666
H     -0.52972    -3.43600     0.27881
H     -0.28337    -1.15321    -0.04663
H     -2.27026    -3.13367     0.38565
H     -1.43514    -2.92390    -1.16206
C      2.42265    -0.04972     0.35603
O      1.26947    -0.02146    -0.46643
H      2.90634    -1.01626     0.22976
H      0.87792     0.86257    -0.36703
H      3.12570     0.73686     0.07246
H      2.15275     0.08082     1.40650
