 42
-810.6655004382479
C     -0.65748    -2.80491     1.27697
O     -1.03621    -1.54016     0.73875
H     -1.32833    -3.09486     2.08509
H     -0.85396    -0.84322     1.40056
H     -0.72762    -3.54016     0.47737
H      0.36805    -2.77228     1.64016
C     -1.33664     1.14173     3.01723
O     -0.30564     0.61058     2.19882
H     -1.12667     2.18131     3.26350
H     -0.12184     1.29150     1.49085
H     -2.29544     1.09314     2.49821
H     -1.38777     0.56038     3.93381
C      2.14904    -1.67902    -1.26176
O      1.13828    -0.67964    -1.26480
H      2.41640    -1.97214    -0.24440
H      0.45372    -0.91739    -0.62633
H      1.83074    -2.56795    -1.81685
H      3.03465    -1.27541    -1.75375
C     -2.03535    -1.77594    -2.48464
O     -2.36943    -0.84274    -1.47152
H     -0.95406    -1.88553    -2.58552
H     -1.97871    -1.16037    -0.63686
H     -2.47482    -2.75408    -2.27825
H     -2.44164    -1.41856    -3.42913
C     -0.77034     1.62627    -3.05747
O     -1.44223     1.64098    -1.80886
H     -1.41040     1.22122    -3.84276
H     -1.88264     0.77063    -1.70675
H     -0.50816     2.64756    -3.33033
H      0.13632     1.02260    -3.00082
C      3.14216    -0.08764     1.69263
O      2.10413    -0.93518     2.14323
H      2.94826     0.26766     0.67868
H      1.31232    -0.39407     2.25947
H      3.27644     0.77532     2.35241
H      4.07060    -0.65770     1.68684
C      1.35647     2.60015    -0.19017
O      0.05272     2.31069     0.29203
H      2.04027     2.65570     0.65688
H     -0.52307     2.09300    -0.47924
H      1.70313     1.83048    -0.87740
H      1.37133     3.56676    -0.69403
