 36
-694.8448132923464
C     -2.32583     1.77884    -2.02227
O     -0.96636     1.59303    -2.42746
H     -2.40703     2.61647    -1.32972
H     -0.70146     2.31271    -3.00068
H     -2.97014     1.95994    -2.88287
H     -2.64488     0.87506    -1.51395
C      3.20473     0.21430     2.64746
O      2.19065     0.57092     1.72708
H      2.87842    -0.60446     3.29394
H      2.23480    -0.06248     0.97388
H      4.11873    -0.08998     2.13325
H      3.42993     1.07944     3.26756
C      1.33859    -2.35062     0.48691
O      1.97503    -1.25440    -0.15371
H      1.69163    -3.29317     0.06240
H      1.41999    -1.01044    -0.92891
H      1.59265    -2.34183     1.54631
H      0.25483    -2.29505     0.38562
C     -0.48852    -1.76170    -2.46600
O      0.40422    -0.69181    -2.18483
H      0.02464    -2.70142    -2.26167
H     -0.10614     0.13428    -2.22000
H     -1.37390    -1.69687    -1.83476
H     -0.77701    -1.75443    -3.51937
C     -2.98108    -1.06511     1.27384
O     -1.99318    -0.69179     0.33119
H     -2.55299    -1.64699     2.09597
H     -1.36620    -0.08906     0.77483
H     -3.48532    -0.19252     1.70148
H     -3.72859    -1.67864     0.77038
C     -0.50634     2.42689     1.17405
O     -0.42420     1.08608     1.62236
H     -1.51561     2.79388     1.36603
H      0.52469     0.88672     1.75611
H      0.19665     3.06235     1.71444
H     -0.28841     2.49915     0.10617
