 36
-694.8545208036879
C     -2.42065     2.01603     2.79556
O     -1.74435     2.46836     1.64061
H     -2.33352     0.93216     2.91582
H     -0.84875     2.11003     1.66365
H     -2.04659     2.49703     3.70392
H     -3.47717     2.26093     2.68595
C      1.59893    -2.48388     0.29574
O      0.35731    -2.56191    -0.38331
H      2.36560    -2.95161    -0.32067
H     -0.30698    -2.13297     0.19782
H      1.88837    -1.44902     0.48300
H      1.55658    -3.01779     1.24595
C      1.92680     0.95500     2.07541
O      0.68669     1.04484     1.39617
H      2.07527     1.83498     2.69863
H      0.85636     1.07701     0.42315
H      1.93510     0.06651     2.70915
H      2.74802     0.88408     1.36090
C      1.46066    -1.55813    -3.51241
O      0.47120    -1.08419    -2.61065
H      2.13005    -0.73806    -3.77478
H      0.35102    -1.75230    -1.90258
H      2.04916    -2.36042    -3.06555
H      0.99266    -1.93118    -4.42439
C     -2.19318    -0.46933     0.22818
O     -1.25123    -1.05571     1.12736
H     -1.70447     0.19485    -0.48280
H     -0.69516    -0.34739     1.48462
H     -2.68648    -1.27289    -0.31601
H     -2.94407     0.09402     0.77664
C      0.03545     2.11812    -1.74747
O      0.91273     1.12661    -1.21401
H      0.60305     2.86087    -2.30892
H      0.80060     0.31606    -1.76089
H     -0.70114     1.65863    -2.40919
H     -0.49095     2.61818    -0.93195
