 36
-694.8475055828138
C      3.02089     0.74499    -1.69323
O      1.75531     0.12238    -1.52851
H      3.02081     1.42457    -2.54811
H      1.10189     0.79548    -1.29532
H      3.30838     1.30140    -0.79617
H      3.75773    -0.03663    -1.86719
C     -0.34178     3.18741     0.02288
O     -0.24376     1.78756    -0.15689
H      0.64119     3.61933     0.22338
H     -0.02922     1.38767     0.72357
H     -0.74081     3.62822    -0.88777
H     -1.00741     3.42940     0.85357
C      0.81580    -2.74011     0.93121
O      1.47395    -1.47160     0.88430
H      0.04072    -2.79221     0.17094
H      1.60223    -1.20014    -0.03786
H      1.54279    -3.54226     0.79791
H      0.36338    -2.84755     1.91645
C     -3.11878     0.43256     0.58678
O     -2.58720     0.40331    -0.73033
H     -3.74040    -0.45006     0.73289
H     -1.76945     0.92430    -0.71221
H     -2.32114     0.42601     1.33260
H     -3.73875     1.31962     0.73544
C     -0.95253    -2.12105    -2.35554
O     -1.62166    -2.16052    -1.10908
H     -0.10855    -1.42798    -2.33126
H     -2.08336    -1.31350    -1.00763
H     -0.57761    -3.12227    -2.57488
H     -1.62369    -1.82519    -3.16666
C      1.36495     1.18427     2.94686
O      0.41146     0.59136     2.08221
H      2.29763     1.40211     2.41952
H      0.80446    -0.25646     1.75421
H      0.95673     2.11581     3.33629
H      1.58646     0.52653     3.78733
