 60
-1158.09832372863
C      3.56242    -2.06510    -0.47615
O      2.81914    -1.19382    -1.31546
H      3.59391    -1.70145     0.55227
H      1.92452    -1.13794    -0.93628
H      3.13041    -3.06876    -0.48007
H      4.57845    -2.12832    -0.86063
C      0.38561    -1.10824     1.34343
O      0.42978    -0.85319    -0.05894
H      0.45923    -2.17939     1.53467
H     -0.38489    -1.24398    -0.46214
H      1.23139    -0.61708     1.81830
H     -0.53954    -0.73712     1.78388
C      3.32346     2.19671    -2.10748
O      3.60239     1.34150    -1.01062
H      3.96119     3.07636    -2.03430
H      3.39655     0.42637    -1.28664
H      3.53779     1.70002    -3.05527
H      2.28208     2.51732    -2.10546
C     -4.24039     0.60718     3.14300
O     -3.11136     0.01155     2.52455
H     -4.00595     1.61224     3.49662
H     -2.79572     0.62424     1.82375
H     -5.08363     0.66883     2.45026
H     -4.53046    -0.00315     3.99634
C      4.12646     1.70453     2.47582
O      3.40240     0.76189     1.70911
H      3.65995     2.69530     2.44129
H      3.52063     0.97400     0.76852
H      4.13806     1.37147     3.51387
H      5.16020     1.80315     2.13251
C     -1.59070    -3.21800    -1.63949
O     -1.74147    -1.96061    -0.99714
H     -2.55422    -3.71131    -1.76227
H     -2.38069    -2.07308    -0.25518
H     -1.15855    -3.05313    -2.62437
H     -0.92641    -3.87519    -1.07111
C      0.92726     2.62235     0.61087
O      0.20188     1.86503    -0.35631
H      0.38539     3.54978     0.77783
H      0.47488     0.92951    -0.30662
H      1.00823     2.08898     1.55589
H      1.92319     2.85032     0.23918
C      0.15147     0.46677    -3.41548
O     -0.32137     1.77531    -3.17784
H      1.20830     0.35563    -3.15979
H     -0.17723     1.98164    -2.24782
H     -0.41380    -0.28754    -2.86190
H      0.03935     0.25777    -4.47892
C     -2.91031    -3.35243     1.99294
O     -3.27786    -2.26506     1.16530
H     -3.45305    -3.32606     2.93830
H     -3.26463    -1.45382     1.72359
H     -3.14662    -4.28579     1.48465
H     -1.84006    -3.33170     2.21155
C     -2.98853     1.04601    -0.76862
O     -2.33623     1.45826     0.43277
H     -2.26631     0.79445    -1.54193
H     -1.43320     1.73421     0.18978
H     -3.59857     0.16698    -0.56435
H     -3.63827     1.84155    -1.13475
