 24
-463.2293508952242
C      2.42886     0.48368     1.15160
O      1.78918     0.73593    -0.08738
H      1.70861     0.18886     1.92068
H      1.48680    -0.12634    -0.43714
H      3.17234    -0.30902     1.05347
H      2.93075     1.39376     1.47013
C     -0.81679     2.77661    -1.03974
O     -0.62162     1.95531     0.10239
H     -0.59277     2.23462    -1.96191
H      0.31428     1.66520     0.09758
H     -1.85862     3.09104    -1.05811
H     -0.18463     3.66430    -0.99117
C     -2.31198    -0.86480     1.10540
O     -1.76031    -0.46962    -0.13788
H     -1.57698    -0.77845     1.91050
H     -1.49768     0.47240    -0.05159
H     -3.18060    -0.25633     1.35840
H     -2.62762    -1.90357     1.02741
C      0.75270    -2.87209    -0.19170
O      0.59252    -1.59034    -0.76966
H      0.72656    -2.82199     0.90002
H     -0.33095    -1.29947    -0.61116
H     -0.02965    -3.55627    -0.52697
H      1.71628    -3.27001    -0.50198
