 30
-579.039829489828
C      1.90837     1.23472     2.04128
O      1.92468     0.64368     0.74366
H      0.91281     1.18289     2.48042
H      1.60593    -0.26757     0.80928
H      2.62661     0.74272     2.69884
H      2.19736     2.27828     1.93100
C     -2.55175     0.07519     1.24457
O     -1.29270     0.07662     1.89808
H     -3.07237    -0.87654     1.37637
H     -0.76157    -0.62940     1.50955
H     -3.16149     0.86518     1.68498
H     -2.45299     0.27300     0.17390
C     -0.07319    -0.99176    -3.11906
O     -0.65163    -0.70740    -1.85657
H     -0.46260    -0.31754    -3.88342
H     -0.44543     0.23388    -1.64234
H      1.01502    -0.89158    -3.08857
H     -0.32771    -2.01371    -3.39563
C     -0.63333     2.60472    -0.41216
O      0.20553     1.65282    -1.04793
H     -1.51033     2.76018    -1.03982
H      0.91400     1.40189    -0.41863
H     -0.94967     2.25763     0.57027
H     -0.11930     3.56217    -0.30810
C      0.69381    -3.14204     0.33265
O      0.28230    -1.78721     0.39809
H     -0.16959    -3.81007     0.33231
H     -0.08932    -1.52502    -0.47486
H      1.28456    -3.32754    -0.56678
H      1.30670    -3.35529     1.20522
