 36
-694.8509013283816
C      2.34128     2.34131     0.41149
O      2.12590     1.32891    -0.55824
H      1.55920     2.33366     1.17280
H      2.11925     0.46882    -0.10811
H      3.31541     2.22913     0.89354
H      2.32136     3.30380    -0.09694
C     -0.92531     2.58246    -1.14393
O     -0.33461     1.43879    -1.72698
H     -0.34392     3.48840    -1.33796
H      0.58195     1.38449    -1.40748
H     -1.91299     2.72903    -1.58403
H     -1.04000     2.46602    -0.06456
C     -1.04779     0.38643     3.01510
O     -0.51495     0.69494     1.73134
H     -1.98398     0.93108     3.12351
H      0.28508     0.17158     1.57217
H     -1.25178    -0.68312     3.12349
H     -0.36654     0.70029     3.80918
C      0.03647    -2.01912    -2.20462
O     -0.08146    -2.23586    -0.80031
H     -0.66289    -2.65920    -2.74325
H     -0.94785    -1.86238    -0.51718
H     -0.15557    -0.97884    -2.46055
H      1.04714    -2.28416    -2.51012
C     -3.05005    -0.33566    -1.01720
O     -2.21976    -0.87494     0.00508
H     -2.47332     0.29398    -1.69072
H     -1.77774    -0.14711     0.46827
H     -3.48127    -1.16722    -1.57180
H     -3.86694     0.24356    -0.58286
C      2.26647    -2.01180     1.57967
O      1.64221    -1.06373     0.73166
H      1.52355    -2.66991     2.03469
H      1.03472    -1.55956     0.11440
H      2.97774    -2.61726     1.01757
H      2.79285    -1.47384     2.36513
