 60
-1158.0953214945666
C     -0.41498     0.18500    -3.93986
O     -1.61699     0.44620    -3.23359
H      0.39090    -0.10891    -3.26457
H     -1.37819     0.98978    -2.45976
H     -0.59385    -0.62619    -4.64356
H     -0.09870     1.06318    -4.50630
C     -1.37318     5.24876     0.67100
O     -0.77300     3.98067     0.89490
H     -2.45586     5.16449     0.54068
H     -0.90509     3.43455     0.11050
H     -1.17823     5.86652     1.54707
H     -0.94898     5.74703    -0.20518
C      4.11608     0.72215     0.28353
O      2.98815    -0.03551     0.68008
H      4.47737     1.28826     1.14165
H      2.69813    -0.56020    -0.10196
H      4.92068     0.07158    -0.06223
H      3.86450     1.42200    -0.51743
C     -2.28317     1.09315     1.96315
O     -1.33792     0.34445     1.21533
H     -1.90565     2.08126     2.22204
H     -0.51448     0.27859     1.73614
H     -3.18076     1.20838     1.35680
H     -2.56577     0.56734     2.87698
C     -0.37481    -3.14597     0.01015
O     -0.05086    -2.81830    -1.33937
H     -1.13293    -3.92832     0.04249
H     -0.89470    -2.59277    -1.78805
H      0.51213    -3.51261     0.52333
H     -0.74501    -2.27979     0.55729
C      1.35024     1.63807     3.09035
O      1.12752     0.38250     2.46198
H      2.41646     1.84976     3.15391
H      1.86570     0.22987     1.82469
H      0.86066     2.44322     2.53978
H      0.94476     1.59509     4.09916
C     -3.35202    -1.74969    -1.33291
O     -2.39331    -1.97546    -2.35502
H     -4.26793    -1.32619    -1.74625
H     -2.22119    -1.10837    -2.77838
H     -3.59772    -2.70863    -0.87978
H     -2.97191    -1.07860    -0.55761
C      3.04243    -2.00004    -2.35261
O      2.16927    -1.38674    -1.41784
H      2.63893    -1.91162    -3.36366
H      1.33441    -1.91244    -1.40782
H      4.01030    -1.49897    -2.32017
H      3.18303    -3.05681    -2.12225
C     -1.06544    -2.10161     3.59716
O      0.26402    -2.27781     3.16671
H     -1.14237    -1.35171     4.39149
H      0.65159    -1.40733     3.02938
H     -1.72354    -1.80440     2.77803
H     -1.42752    -3.05030     3.99203
C      0.69086     1.78786    -0.98168
O     -0.73611     1.73607    -1.00400
H      1.12909     0.89367    -1.41444
H     -1.01964     1.15945    -0.26260
H      1.00064     2.65441    -1.56394
H      1.07874     1.89886     0.02763
