 48
-926.4741174603109
C     -0.84634     1.28826     3.29237
O     -1.63838     2.27476     2.65396
H      0.08972     1.10532     2.76261
H     -1.83688     1.94973     1.76906
H     -0.61217     1.64044     4.29676
H     -1.38122     0.34010     3.38195
C     -2.84625     1.22734    -0.78583
O     -1.68963     1.06681     0.02663
H     -3.74252     0.95015    -0.22753
H     -1.64237     0.12656     0.32263
H     -2.91999     2.27613    -1.06721
H     -2.77061     0.61481    -1.68060
C     -1.49631    -1.52670    -4.41102
O     -1.66459    -1.05524    -3.09140
H     -2.47608    -1.59183    -4.88304
H     -0.83944    -1.22907    -2.60768
H     -0.87861    -0.84511    -5.00365
H     -1.03666    -2.51915    -4.44154
C      0.61752     3.58176     0.52929
O      0.76821     2.25669     0.03610
H      0.34893     3.58584     1.58462
H     -0.11668     1.85095    -0.04414
H      1.56485     4.10283     0.39465
H     -0.15165     4.11475    -0.03144
C      1.90117    -2.69110     1.80274
O      1.32649    -1.73059     0.93289
H      1.38870    -3.64106     1.66467
H      1.80272    -0.87044     1.08374
H      2.95947    -2.82533     1.57632
H      1.79611    -2.37437     2.84130
C     -1.99011    -2.47586     0.18285
O     -1.40480    -1.40012     0.90878
H     -3.05881    -2.29088     0.09696
H     -0.45455    -1.58695     1.02610
H     -1.57200    -2.55994    -0.81977
H     -1.85027    -3.42084     0.71093
C      1.58786    -0.51506    -2.29996
O      0.69737    -1.52128    -1.82969
H      2.62143    -0.86760    -2.27288
H      0.92716    -1.73265    -0.91165
H      1.33300    -0.28586    -3.33403
H      1.50335     0.40145    -1.71489
C      3.79225     0.89348     0.78011
O      2.47261     0.58963     1.19977
H      4.47884     0.17983     1.23231
H      1.87999     1.26618     0.79595
H      3.88412     0.83410    -0.30683
H      4.07651     1.89714     1.09838
