 30
-579.0312050906053
C      1.85615     0.46761    -1.27585
O      1.36378    -0.12421    -0.07160
H      2.87490     0.79948    -1.08803
H      0.40795    -0.25973    -0.17440
H      1.87049    -0.26824    -2.08328
H      1.24303     1.31632    -1.57205
C     -1.73632    -0.99949    -1.59721
O     -1.22521    -1.35240    -0.31488
H     -0.94449    -0.97987    -2.35065
H     -0.72238    -2.17653    -0.38445
H     -2.51285    -1.69578    -1.91614
H     -2.16078    -0.00249    -1.51230
C      1.28493    -3.75319     1.07183
O      1.11744    -3.07254    -0.16595
H      0.84560    -3.18313     1.89437
H      1.54910    -2.21246    -0.09891
H      0.77522    -4.71094     0.99167
H      2.34062    -3.93314     1.28619
C     -1.37593     3.72290    -1.05983
O     -1.04736     2.34522    -0.93563
H     -1.72844     3.89273    -2.07676
H     -0.72105     2.18921    -0.03824
H     -2.16799     4.01145    -0.36346
H     -0.50517     4.36005    -0.88161
C     -0.66684     0.96904     2.56744
O      0.11329     1.79710     1.71023
H     -1.11861     0.14834     2.00851
H      0.85764     1.27226     1.39008
H     -0.06130     0.56352     3.38048
H     -1.45407     1.58829     2.99124
