 30
-579.0317253504454
C      4.00842     1.45135    -0.28502
O      2.69062     1.28600     0.20060
H      4.28925     2.49667    -0.15667
H      2.38957     0.40134    -0.04517
H      4.72222     0.83177     0.26609
H      4.08254     1.20253    -1.34763
C     -1.61443    -0.42680    -2.55972
O     -1.02408    -0.36943    -1.26770
H     -1.76615    -1.47219    -2.81903
H     -1.26623     0.48820    -0.85882
H     -2.57940     0.08163    -2.56125
H     -0.96406     0.03771    -3.30254
C      1.41324    -2.25451     0.43955
O      1.59274    -1.21993    -0.51512
H      2.39585    -2.62780     0.72066
H      0.72291    -0.97946    -0.86116
H      0.90764    -1.87857     1.33032
H      0.83203    -3.07805     0.01918
C     -0.53459     2.58025     0.50285
O     -1.65034     1.70201     0.32221
H     -0.32507     3.03896    -0.46174
H     -1.75782     1.16141     1.11669
H     -0.77957     3.36220     1.22162
H      0.35194     2.03933     0.83067
C     -3.00974    -1.45409     1.78452
O     -1.71461    -0.90589     1.57095
H     -3.20935    -1.42458     2.85463
H     -1.44783    -1.09170     0.66065
H     -3.77486    -0.87085     1.26531
H     -3.06662    -2.49252     1.44773
