 42
-810.6631946401687
C     -3.35958     2.72232    -0.30853
O     -2.78375     1.43466    -0.22084
H     -4.31365     2.71342     0.21992
H     -1.98260     1.41519    -0.77056
H     -2.72179     3.48458     0.15309
H     -3.54240     3.01931    -1.34590
C      4.12318     0.26080     1.74966
O      2.99058     0.22093     0.89933
H      4.36594     1.30332     1.94711
H      2.76647    -0.71951     0.75090
H      3.92366    -0.24370     2.69823
H      4.98377    -0.21479     1.27428
C      2.03408    -2.74687    -0.79361
O      1.98244    -2.25895     0.54335
H      1.61324    -2.02761    -1.49704
H      1.04995    -2.18588     0.79998
H      3.07842    -2.92129    -1.04388
H      1.48895    -3.68718    -0.88197
C      0.86798     1.67798    -2.02410
O     -0.48217     1.31024    -1.79928
H      0.92002     2.76369    -2.09256
H     -0.54770     0.34274    -1.93294
H      1.51529     1.34755    -1.20911
H      1.24037     1.25621    -2.95913
C     -2.25162    -1.57629    -2.16168
O     -0.90518    -1.33072    -1.77852
H     -2.49187    -2.63776    -2.07523
H     -0.82961    -1.49059    -0.81958
H     -2.95120    -1.00190    -1.55260
H     -2.36773    -1.28302    -3.20351
C     -1.98413    -1.52906     1.58687
O     -0.70511    -1.37605     0.98798
H     -2.36820    -2.51716     1.34029
H     -0.36313    -0.47960     1.24599
H     -1.90942    -1.44730     2.67071
H     -2.67204    -0.76947     1.21575
C     -0.12358     2.19023     1.49958
O      0.39043     0.86863     1.62845
H     -1.15337     2.18982     1.84559
H      1.33631     0.84651     1.38159
H      0.44685     2.88426     2.11856
H     -0.09775     2.51594     0.46113
