 36
-694.8509271631397
C      3.31873     2.29067    -1.75913
O      3.59076     1.24145    -0.85211
H      3.39462     1.96784    -2.80181
H      2.95903     0.53021    -1.00598
H      2.31782     2.70424    -1.59570
H      4.04687     3.08245    -1.58958
C     -0.90317     0.75475    -1.81793
O     -0.83498    -0.66660    -1.76234
H      0.05245     1.17448    -2.12940
H      0.06431    -0.87645    -1.44204
H     -1.66101     1.03876    -2.54761
H     -1.16862     1.17826    -0.84615
C      1.98364    -2.23596    -0.33447
O      1.56305    -0.91066    -0.62051
H      1.18015    -2.80056     0.14313
H      1.34022    -0.48161     0.24677
H      2.25633    -2.72210    -1.26812
H      2.85095    -2.22347     0.32526
C      1.21662     1.64261     1.67750
O      0.79472     0.28993     1.57031
H      0.89333     2.07409     2.62548
H     -0.18216     0.25919     1.68293
H      2.30217     1.68120     1.62849
H      0.80689     2.24652     0.86431
C     -4.06003    -1.01192    -0.74335
O     -2.83678    -1.38323    -0.13075
H     -4.49851    -1.86195    -1.26832
H     -2.13039    -1.28241    -0.80343
H     -4.75654    -0.68423     0.02844
H     -3.91543    -0.19688    -1.45395
C     -2.28793    -0.35533     3.09776
O     -1.85276     0.11654     1.83277
H     -2.14911    -1.43513     3.18444
H     -2.28181    -0.44359     1.14503
H     -1.70732     0.13635     3.87767
H     -3.34311    -0.12136     3.25205
