 60
-1158.0863402228917
C      5.21960    -1.88798     0.77023
O      3.87703    -1.61579     1.11270
H      5.54768    -1.29339    -0.08908
H      3.31258    -1.94919     0.39088
H      5.85126    -1.63632     1.62168
H      5.37264    -2.94496     0.52943
C      0.82824    -2.14149     2.78131
O      0.01415    -1.63822     1.72222
H      0.46063    -3.13188     3.04994
H      0.46331    -0.90483     1.28213
H      1.87397    -2.22446     2.48966
H      0.76174    -1.50766     3.66917
C      0.48897    -0.26324    -2.90338
O      0.40020    -0.72956    -1.55980
H      0.24424     0.79637    -2.94225
H     -0.53092    -1.06180    -1.40744
H      1.50540    -0.42222    -3.26201
H     -0.20685    -0.80677    -3.53905
C     -2.23943    -2.71284    -0.46292
O     -2.01785    -1.48593    -1.15200
H     -1.65599    -3.49124    -0.95416
H     -2.43057    -0.75222    -0.64958
H     -1.91956    -2.64087     0.57430
H     -3.29101    -2.99693    -0.51121
C      2.40016     1.19728     0.48579
O      0.98366     0.98740     0.40560
H      2.75385     0.87804     1.46456
H      0.78763     0.47577    -0.40557
H      2.92297     0.62852    -0.28114
H      2.61446     2.25824     0.36071
C      1.53118    -3.69460    -0.51714
O      2.26494    -2.52542    -0.84233
H      1.06465    -4.10994    -1.41362
H      1.62172    -1.86904    -1.16960
H      2.22368    -4.44033    -0.12762
H      0.76659    -3.49178     0.23225
C     -4.17189     1.04518     0.50625
O     -2.84025     0.69677     0.16963
H     -4.80463     0.90529    -0.36809
H     -2.25552     0.99187     0.91576
H     -4.53640     0.41467     1.31729
H     -4.22421     2.08788     0.81797
C     -2.44535     3.26429    -2.20039
O     -1.91906     1.94923    -2.24128
H     -2.20403     3.75969    -1.25850
H     -2.16833     1.49937    -1.42335
H     -2.00181     3.83850    -3.01409
H     -3.52973     3.27452    -2.34455
C     -1.47135     0.73230     3.38043
O     -1.31593     1.40115     2.12934
H     -0.62082     0.93110     4.03316
H     -0.39241     1.33762     1.83755
H     -2.36822     1.11981     3.85785
H     -1.57329    -0.34195     3.23477
C      0.52308     4.07317    -1.23712
O      0.06832     3.60873     0.01547
H      0.31875     3.34686    -2.02733
H      0.30424     2.67480     0.07419
H      0.00070     4.99990    -1.47884
H      1.59395     4.30043    -1.22525
