 60
-1158.0974641257537
C      3.76811     0.64755    -0.44459
O      4.66312    -0.05932     0.38696
H      3.34120     1.52214     0.05378
H      4.14525    -0.46317     1.09131
H      4.32727     0.98963    -1.31628
H      2.94573     0.01894    -0.79239
C     -2.17310     4.55937    -1.57434
O     -2.03376     3.44545    -0.70834
H     -1.48606     5.35800    -1.29539
H     -1.06928     3.27189    -0.61465
H     -1.97608     4.27838    -2.61226
H     -3.19054     4.93878    -1.50079
C      3.30906    -2.99025    -0.97386
O      2.09465    -2.79949    -0.26012
H      3.72846    -2.04000    -1.30173
H      1.47471    -2.26548    -0.80035
H      4.02261    -3.47854    -0.31103
H      3.15793    -3.63597    -1.84076
C     -4.59974     1.53353    -1.69220
O     -3.25839     1.20953    -1.36962
H     -4.65070     2.08632    -2.63133
H     -2.80416     2.05311    -1.13307
H     -5.16750     0.61115    -1.80310
H     -5.05955     2.13551    -0.90523
C      2.08591    -1.80787     3.15031
O      2.47069    -1.27212     1.89211
H      2.73843    -2.63347     3.43586
H      2.32273    -1.95129     1.19333
H      2.18604    -1.02186     3.89572
H      1.05282    -2.14702     3.12107
C     -0.79219    -3.46629     1.26274
O     -0.87018    -2.08838     1.58823
H     -1.07890    -3.65023     0.22532
H     -1.63665    -1.68853     1.13748
H      0.23644    -3.80129     1.38198
H     -1.42968    -4.07542     1.90979
C     -0.09264     0.95572     2.01813
O      0.90074     0.74105     1.01474
H     -0.01276     0.20054     2.79558
H      1.55645     0.10303     1.36774
H      0.02836     1.94673     2.45737
H     -1.08520     0.88775     1.57509
C     -0.83787    -1.46189    -1.92705
O      0.39850    -1.00751    -1.39146
H     -0.63291    -1.92523    -2.88990
H      0.25369    -0.47168    -0.59714
H     -1.30027    -2.20010    -1.27649
H     -1.54021    -0.64290    -2.07631
C      0.75917     2.29370    -2.03071
O      0.55293     2.78045    -0.71011
H      0.08365     1.47310    -2.27583
H      0.81176     2.07406    -0.08902
H      0.57483     3.10626    -2.73127
H      1.78631     1.95800    -2.16097
C     -3.72061    -0.18192     1.51608
O     -2.95458    -0.71856     0.44846
H     -3.73444     0.90936     1.47239
H     -3.01971    -0.06920    -0.28283
H     -4.74952    -0.54595     1.47383
H     -3.28216    -0.48771     2.46908
