 42
-810.6631932804446
C     -1.99684    -1.66467     1.16502
O     -2.15260    -1.56278    -0.24261
H     -2.97586    -1.54297     1.62675
H     -1.28420    -1.73703    -0.63831
H     -1.60283    -2.64372     1.44488
H     -1.33008    -0.89076     1.55142
C      1.92484     0.37919     3.71311
O      1.01359     0.29318     2.63008
H      2.73749     1.07217     3.47796
H      1.19620    -0.54092     2.15429
H      1.39825     0.74300     4.59380
H      2.35658    -0.59564     3.94350
C     -4.19824     1.17875    -1.12749
O     -2.80207     0.95768    -1.18833
H     -4.70955     0.39796    -0.55824
H     -2.61917     0.05567    -0.88385
H     -4.39575     2.13685    -0.64153
H     -4.62806     1.20702    -2.13256
C     -0.20956     2.88473     0.80612
O      0.99800     2.14100     0.67573
H     -0.42147     3.10292     1.85361
H      1.04029     1.52712     1.43757
H     -0.09247     3.82979     0.27873
H     -1.05624     2.34002     0.38357
C      0.53591    -2.32557    -2.54942
O      0.38117    -1.63346    -1.32439
H      1.39869    -1.94663    -3.09788
H      0.57075    -0.67063    -1.49842
H      0.68556    -3.38155    -2.33803
H     -0.35459    -2.20219    -3.16922
C      3.03672    -1.29501     0.59073
O      1.78279    -1.77464     1.07514
H      2.89473    -0.63366    -0.26506
H      1.22669    -1.93803     0.29616
H      3.52694    -0.73637     1.38768
H      3.67890    -2.12714     0.29793
C      0.29409     1.67375    -2.62836
O      0.97841     0.85818    -1.68295
H     -0.74500     1.81822    -2.34199
H      1.04723     1.35882    -0.83770
H      0.78199     2.64457    -2.71935
H      0.33209     1.18708    -3.60219
