 36
-694.8541995045581
C      0.30825     2.38427    -1.98870
O     -0.77168     1.97948    -1.16619
H      0.09180     2.21954    -3.04724
H     -0.81684     1.01725    -1.17321
H      0.46447     3.45379    -1.84452
H      1.23680     1.86439    -1.73682
C      2.94949    -1.51393     0.13481
O      2.24576    -0.41070    -0.41047
H      2.30720    -2.10158     0.79624
H      1.96977     0.16531     0.34623
H      3.29143    -2.15070    -0.68024
H      3.81716    -1.17678     0.70204
C      1.26544     2.37665     1.60866
O      1.21711     0.96041     1.57717
H      0.87343     2.75980     2.55291
H      0.28191     0.68124     1.70576
H      2.30537     2.69248     1.52387
H      0.69006     2.80030     0.78693
C      0.09428    -1.21251    -2.92656
O     -0.07777    -0.94185    -1.54607
H      0.67037    -2.12728    -3.07604
H      0.80960    -0.76922    -1.14523
H     -0.88846    -1.32509    -3.37818
H      0.61453    -0.38799    -3.41299
C     -2.34891     1.21648     1.68357
O     -1.32214     0.23787     1.80248
H     -2.02717     2.03488     1.04099
H     -1.60371    -0.55819     1.30793
H     -3.24933     0.77560     1.25589
H     -2.58388     1.60727     2.67287
C     -1.40634    -3.10326     0.72354
O     -1.88203    -1.86072     0.23233
H     -2.09527    -3.46176     1.48482
H     -1.30898    -1.60154    -0.51188
H     -1.35288    -3.84360    -0.07705
H     -0.41226    -2.99704     1.16759
