 54
-1042.2873094762297
C      3.22238    -2.44695    -0.37367
O      3.22030    -2.06013     0.99609
H      2.56619    -1.80725    -0.96657
H      3.41319    -1.10143     1.02525
H      4.23214    -2.40032    -0.78041
H      2.87432    -3.47608    -0.44168
C     -0.61573    -2.47953    -2.11262
O     -0.81948    -1.42965    -3.02476
H     -0.17845    -2.13248    -1.17228
H     -1.44915    -0.80288    -2.64668
H     -1.54323    -3.01693    -1.88887
H      0.07662    -3.18874    -2.56290
C     -2.12429    -1.47080     0.87848
O     -0.93898    -0.76277     1.23633
H     -2.89749    -1.29638     1.62529
H     -0.29254    -1.40917     1.61556
H     -2.47375    -1.12329    -0.09000
H     -1.92329    -2.54032     0.82916
C      4.17775     1.26539    -0.16330
O      3.29349     0.64020     0.74706
H      5.19984     1.11192     0.17794
H      2.41414     0.65370     0.31825
H      4.07961     0.85527    -1.17071
H      3.98589     2.33978    -0.21012
C      0.76483     1.32136    -1.72616
O      0.99376     0.50188    -0.57774
H     -0.12085     1.94141    -1.60511
H      0.16856     0.13483    -0.23000
H      1.62916     1.97465    -1.85076
H      0.66738     0.70816    -2.61942
C     -3.32295     3.66787    -0.17406
O     -2.24549     2.79304    -0.44578
H     -3.61108     4.16200    -1.10016
H     -1.85213     2.52717     0.41571
H     -4.18151     3.11820     0.22000
H     -3.03215     4.43125     0.54964
C      0.06571     2.26306     2.24169
O     -1.19187     1.80822     1.76711
H      0.31860     1.78513     3.18873
H     -1.13309     0.83645     1.66465
H      0.86321     2.06517     1.52526
H      0.00070     3.33646     2.40711
C      1.09138    -2.44459     3.53748
O      0.84259    -2.43478     2.13425
H      0.66500    -3.34521     3.97698
H      1.71636    -2.36258     1.68520
H      2.16171    -2.41930     3.73361
H      0.62982    -1.57037     4.00180
C     -3.76101     0.92737    -2.77646
O     -2.59069     0.63480    -2.03037
H     -3.51704     1.03716    -3.83551
H     -2.40252     1.40644    -1.46066
H     -4.48027     0.11391    -2.66484
H     -4.22302     1.85088    -2.42540
