 42
-810.6641428456074
C      1.32097    -2.70570     2.25513
O      1.67375    -1.58309     3.04479
H      0.54525    -2.45932     1.52742
H      1.96562    -0.89766     2.43419
H      2.18392    -3.10367     1.71307
H      0.94763    -3.48631     2.91659
C     -1.11267     0.30875     2.85216
O     -0.68699     0.58575     1.51918
H     -0.68812    -0.62622     3.20648
H      0.28858     0.50288     1.46023
H     -0.82037     1.12096     3.51736
H     -2.19807     0.22946     2.84673
C     -2.09246    -1.55275    -1.48824
O     -1.39659    -1.77971    -0.27665
H     -1.61978    -2.13006    -2.28429
H     -1.29612    -0.96087     0.21573
H     -3.12797    -1.89192    -1.40213
H     -2.08497    -0.50676    -1.78303
C      1.46766    -1.72311    -1.89933
O      1.55012    -0.35509    -1.51608
H      0.74453    -2.25602    -1.28583
H      0.80920     0.14375    -1.92455
H      1.17965    -1.81158    -2.94754
H      2.44984    -2.17443    -1.77455
C      0.12459     2.38792    -3.09109
O     -0.40991     1.19275    -2.54914
H      0.65666     2.96016    -2.32655
H     -1.05135     1.44733    -1.85221
H      0.82029     2.13346    -3.88921
H     -0.66879     3.01152    -3.50549
C      2.70925     1.48309     0.90756
O      1.92749     0.29815     0.96379
H      3.23692     1.59904     1.85098
H      1.82961    -0.03724     0.03176
H      3.43072     1.41478     0.09523
H      2.06844     2.34944     0.73509
C     -3.35420     1.66865    -0.25719
O     -1.95946     1.81389    -0.45559
H     -3.67505     2.17469     0.65526
H     -1.50325     1.44888     0.32991
H     -3.87079     2.11909    -1.10231
H     -3.63807     0.61642    -0.18817
