 54
-1042.281165654757
C     -1.27011    -0.51013    -3.22985
O     -1.50872    -0.25329    -1.85241
H     -0.57952    -1.34381    -3.38029
H     -1.83802    -1.08215    -1.45503
H     -2.20318    -0.73400    -3.75115
H     -0.83212     0.38524    -3.66854
C     -1.95649     2.25352     0.41769
O     -0.77614     3.03108     0.55283
H     -2.84456     2.87146     0.56031
H     -0.89251     3.59142     1.34877
H     -1.99194     1.83390    -0.58289
H     -1.98185     1.43613     1.14406
C     -0.60236    -4.70608    -3.38726
O     -0.20283    -4.13507    -2.15420
H     -1.05775    -3.95221    -4.03529
H      0.61892    -3.61918    -2.31879
H      0.24932    -5.14355    -3.90977
H     -1.33017    -5.49263    -3.19670
C      3.23035    -2.99334    -2.24288
O      1.91239    -2.57356    -2.55000
H      3.37960    -3.99523    -2.64450
H      1.70675    -1.78246    -2.00085
H      3.96524    -2.32592    -2.69693
H      3.40161    -3.02040    -1.16471
C      0.79967    -1.31847     0.35717
O      1.07833    -0.67804    -0.89043
H      1.20155    -2.33070     0.33990
H      0.26352    -0.23007    -1.17874
H      1.26959    -0.75837     1.16135
H     -0.27371    -1.38045     0.53128
C     -3.28822    -3.49630    -0.87214
O     -2.09477    -2.73593    -0.88963
H     -3.75237    -3.52262    -1.86241
H     -1.39225    -3.28930    -1.29496
H     -3.09741    -4.52265    -0.55255
H     -3.98392    -3.04173    -0.16981
C      2.47456     1.95823     0.61400
O      1.35883     1.70535     1.45210
H      2.49296     1.24950    -0.21005
H      0.56791     2.10626     1.02200
H      2.44612     2.97402     0.21505
H      3.38871     1.84302     1.19815
C     -2.08861     3.84747     3.70245
O     -0.92526     4.19021     2.96865
H     -2.94761     3.86711     3.03199
H     -0.15175     3.78996     3.41978
H     -2.00653     2.84673     4.13014
H     -2.27110     4.56431     4.50486
C      2.42395     3.67637     3.82957
O      1.26846     2.85610     3.83892
H      3.27065     3.15093     4.27595
H      1.34420     2.27029     3.05550
H      2.68912     3.96733     2.81101
H      2.23418     4.57656     4.41532
