 54
-1042.2871874318043
C      0.23877     3.82948    -1.61735
O      1.51106     3.22544    -1.45505
H     -0.10637     4.25927    -0.67365
H      1.49141     2.73127    -0.61974
H      0.32677     4.62955    -2.34948
H     -0.49920     3.10742    -1.96729
C      0.25394    -2.24576     0.97676
O     -1.10237    -2.33403     1.40636
H      0.45123    -1.30904     0.45778
H     -1.60366    -2.74419     0.67400
H      0.90736    -2.30474     1.84882
H      0.49412    -3.07132     0.30984
C     -0.12667    -1.57986    -2.96007
O     -1.38204    -1.34837    -2.33417
H      0.33090    -0.64935    -3.28991
H     -1.28246    -0.53426    -1.79785
H      0.56921    -2.07310    -2.27469
H     -0.28116    -2.23085    -3.81886
C      3.45502     1.49122    -3.95180
O      2.46073     1.07876    -3.03372
H      4.11672     2.24684    -3.51894
H      2.10817     1.86624    -2.59408
H      4.05804     0.62314    -4.22038
H      3.01555     1.90204    -4.86601
C     -2.20633    -4.57838    -1.59644
O     -2.14723    -3.38532    -0.83553
H     -2.75557    -4.42297    -2.52682
H     -1.93497    -2.65536    -1.46052
H     -1.20253    -4.93542    -1.84032
H     -2.71910    -5.33815    -1.01175
C     -1.89016     1.17916     0.09603
O     -0.89113     0.77616    -0.82998
H     -1.87913     2.26153     0.23529
H     -0.02073     0.93237    -0.42432
H     -2.85986     0.90521    -0.31647
H     -1.77289     0.69189     1.06446
C      2.59249     0.61849     0.44064
O      1.42283     1.42325     0.59135
H      2.54107     0.07739    -0.50328
H      1.15974     1.38737     1.54447
H      3.47862     1.25059     0.43813
H      2.66041    -0.09059     1.26480
C     -1.89572    -1.05643     4.58157
O     -1.26306    -0.58639     3.40435
H     -2.81681    -1.58661     4.33631
H     -1.30366    -1.29253     2.72484
H     -1.23816    -1.72504     5.14170
H     -2.14355    -0.19753     5.20312
C      0.38427     2.28919     3.90178
O      0.68392     1.16634     3.08536
H      0.48587     2.03263     4.95719
H     -0.01898     0.49814     3.24223
H      1.08383     3.08915     3.66597
H     -0.63443     2.64269     3.72318
