 48
-926.4728013208808
C      1.83399    -1.78078     3.85860
O      1.04300    -0.75329     3.30749
H      2.90364    -1.56942     3.77211
H      1.49001    -0.43842     2.50398
H      1.59404    -1.88113     4.91692
H      1.63579    -2.74245     3.37306
C     -1.28416    -1.35076     0.32608
O     -1.74699    -0.12812    -0.25639
H     -0.76455    -1.92510    -0.43925
H     -2.06574     0.44564     0.48777
H     -0.60443    -1.17486     1.15791
H     -2.13220    -1.93317     0.68154
C     -2.64385    -1.00365    -3.72279
O     -1.56442    -0.49873    -2.95458
H     -2.32929    -1.03922    -4.76412
H     -1.86932    -0.35425    -2.04064
H     -2.91630    -2.01292    -3.40202
H     -3.51883    -0.35639    -3.64663
C      2.71818    -1.06981     0.27316
O      2.24828     0.05676     1.00240
H      2.86757    -1.89787     0.96686
H      1.73521     0.60735     0.38778
H      2.00976    -1.37910    -0.49639
H      3.67986    -0.84480    -0.19268
C     -2.30012     0.91957     3.08708
O     -2.32410     1.43227     1.75863
H     -1.35449     0.42422     3.30790
H     -1.64016     2.13151     1.69858
H     -2.46035     1.72058     3.80870
H     -3.11132     0.20228     3.19026
C      0.87865    -2.70324    -4.05171
O      0.74839    -1.97955    -2.84817
H      0.91083    -2.03991    -4.92228
H     -0.04819    -1.43227    -2.92690
H      1.80948    -3.26890    -4.01927
H      0.05471    -3.40948    -4.19262
C      1.08228     1.43608    -2.16850
O      0.63651     1.31961    -0.81504
H      0.23425     1.56416    -2.83865
H     -0.17649     0.78807    -0.78877
H      1.72679     2.30987    -2.22885
H      1.64485     0.55200    -2.46715
C      0.77970     2.93074     2.39472
O     -0.20866     3.05762     1.37522
H      0.94684     1.88955     2.66652
H      0.17480     2.75361     0.54244
H      1.72534     3.36798     2.07444
H      0.42476     3.47007     3.27004
