 24
-463.22072785572567
C      2.31815     0.84850     1.71283
O      1.59697    -0.37406     1.61312
H      2.32154     1.14667     2.75939
H      1.56280    -0.62444     0.68087
H      3.34965     0.72753     1.37580
H      1.83940     1.63204     1.12075
C     -0.79604     2.50675    -1.28627
O     -0.29084     1.66661    -2.30768
H     -1.38556     3.29240    -1.75651
H      0.13856     0.91600    -1.88929
H     -1.43532     1.95956    -0.58885
H      0.01269     2.97948    -0.71937
C     -2.05966    -1.33368     1.90997
O     -1.27083    -0.34497     1.25898
H     -2.33689    -1.01505     2.91677
H     -0.43191    -0.25948     1.73518
H     -2.96524    -1.47252     1.32232
H     -1.52459    -2.28489     1.97112
C      0.25022    -2.07239    -1.82005
O      0.40505    -0.92011    -0.99727
H     -0.05724    -2.93936    -1.23059
H     -0.38824    -0.81975    -0.44833
H     -0.48725    -1.89159    -2.60300
H      1.21438    -2.28150    -2.27721
