 42
-810.6646864412529
C     -2.88180    -0.99887     0.63880
O     -1.58460    -0.42934     0.79413
H     -3.61199    -0.43797     1.22170
H     -1.57329     0.47042     0.40922
H     -3.17521    -1.00644    -0.40748
H     -2.83864    -2.01992     1.01345
C      0.34657    -0.27948     3.57742
O      0.49517    -1.02297     2.37792
H     -0.57965    -0.54943     4.08779
H     -0.31373    -0.87306     1.85069
H      1.18557    -0.50454     4.23281
H      0.33303     0.79625     3.37779
C      1.75822     1.15216    -2.12495
O      1.40357     1.66169    -0.84426
H      1.47769     0.10215    -2.22716
H      1.85092     1.10564    -0.16338
H      1.24016     1.73371    -2.88733
H      2.82972     1.25511    -2.29730
C      0.73233    -3.25119    -0.16182
O      0.45001    -2.07947    -0.90677
H      1.18171    -3.01947     0.80519
H     -0.17387    -1.53180    -0.41645
H     -0.16738    -3.84877     0.00618
H      1.43587    -3.85093    -0.73758
C     -1.97862     0.10882    -3.04896
O     -2.89148     0.76617    -2.18874
H     -2.54717    -0.49912    -3.75224
H     -2.38476     1.38451    -1.64985
H     -1.38382     0.82185    -3.62774
H     -1.29666    -0.54219    -2.49858
C      3.40206    -0.94326     0.38712
O      2.52700     0.03307     0.92892
H      3.73329    -1.63867     1.16042
H      1.86290    -0.41991     1.48602
H      2.91282    -1.50456    -0.40845
H      4.27932    -0.43901    -0.01589
C     -1.18944     3.10600     0.53160
O     -1.12345     1.99631    -0.35189
H     -0.49255     3.88087     0.21688
H     -0.16744     1.88547    -0.60507
H     -2.20054     3.50438     0.52112
H     -0.92773     2.79595     1.54611
