 60
-1158.0905781154186
C     -2.06376     2.18998     0.14901
O     -2.01644     1.06636    -0.72164
H     -2.50262     1.92502     1.11467
H     -1.61900     0.31240    -0.25460
H     -1.07453     2.62081     0.30686
H     -2.69626     2.94426    -0.31485
C      1.23794     1.75642    -2.16054
O      1.81125     0.44406    -2.14130
H      1.23667     2.13897    -3.18071
H      1.09605    -0.17447    -2.40792
H      0.21829     1.74237    -1.77882
H      1.83444     2.42815    -1.54701
C      4.22109     0.03003     0.20147
O      2.81111    -0.11480     0.17637
H      4.49929     1.07705     0.06993
H      2.48475     0.09256    -0.75026
H      4.58381    -0.31466     1.16726
H      4.68143    -0.56250    -0.58853
C      1.59964    -3.17652     0.04028
O      1.34918    -2.22644     1.07756
H      1.13957    -4.11890     0.33223
H      1.91262    -1.45194     0.88770
H      1.17070    -2.84869    -0.90752
H      2.67084    -3.33045    -0.08889
C     -2.32417    -2.21676     0.56624
O     -1.21525    -1.41576     0.14335
H     -3.20551    -1.87453     0.02703
H     -0.43735    -1.67183     0.66279
H     -2.14634    -3.26698     0.32679
H     -2.48249    -2.11578     1.63813
C      1.92683     5.03036     1.25703
O      1.18663     4.00709     0.62462
H      1.96698     5.89200     0.59076
H      1.33686     3.18624     1.12128
H      1.46125     5.34357     2.19682
H      2.95365     4.71832     1.47229
C     -4.83953     0.77323    -2.89573
O     -4.12734    -0.14937    -2.09957
H     -5.19014     1.63230    -2.31473
H     -3.44161     0.33699    -1.62069
H     -4.22618     1.14681    -3.72216
H     -5.70827     0.26655    -3.31534
C     -1.17726    -0.57475    -3.61584
O     -0.27370    -1.13658    -2.66421
H     -2.00708    -1.24995    -3.81661
H     -0.75175    -1.31239    -1.84222
H     -1.57370     0.37828    -3.27036
H     -0.62126    -0.41516    -4.53817
C     -0.50120    -3.97145     3.86945
O     -0.39831    -2.66211     3.33496
H     -1.29641    -3.96670     4.61301
H      0.35201    -2.63867     2.72839
H     -0.75852    -4.70144     3.09512
H      0.42493    -4.28830     4.35604
C      0.56384     0.92116     2.47638
O      1.63437     1.63901     1.88867
H      0.12533     1.54046     3.25582
H      2.10769     1.02833     1.29856
H     -0.21276     0.68486     1.74841
H      0.89917    -0.01129     2.92793
