 36
-694.851344451441
C     -0.07491     3.64233     1.09141
O      0.87088     2.61712     0.83255
H      0.01716     3.94377     2.13270
H      0.86986     2.44601    -0.13224
H      0.11145     4.51106     0.45922
H     -1.09448     3.29085     0.91226
C      1.52367     1.81309    -2.81985
O      0.61328     1.90005    -1.73929
H      0.99700     1.60299    -3.75361
H      0.17956     1.02708    -1.65063
H      2.03692     2.76737    -2.91956
H      2.26502     1.02747    -2.65449
C     -2.76190    -0.46078     1.14226
O     -1.50997    -1.11387     1.00235
H     -2.78884     0.46338     0.56069
H     -0.84902    -0.58107     1.51855
H     -3.53732    -1.13176     0.78342
H     -2.95355    -0.22250     2.18756
C      0.78825    -3.46959    -0.31992
O      0.43935    -3.30338     1.03563
H      1.05901    -2.52530    -0.79772
H     -0.34515    -2.74558     1.07709
H      1.64958    -4.13452    -0.36749
H     -0.02404    -3.92888    -0.89041
C     -1.20953    -1.04192    -2.54853
O     -0.50959    -0.48885    -1.44794
H     -1.08296    -2.12518    -2.59181
H     -0.88399    -0.83457    -0.61221
H     -2.27637    -0.81389    -2.49975
H     -0.80519    -0.61930    -3.46738
C      1.60470    -0.40340     2.03306
O      0.37495     0.31870     2.08451
H      2.42111     0.21379     2.40688
H      0.54061     1.19467     1.66671
H      1.52045    -1.28789     2.65971
H      1.84010    -0.72015     1.01602
