 54
-1042.288106642045
C      1.09365    -2.32224     0.96515
O      1.93213    -1.19058     0.86609
H      1.65617    -3.12926     1.43428
H      1.38139    -0.39836     0.82129
H      0.20733    -2.13487     1.57446
H      0.76170    -2.67251    -0.01422
C     -1.89836    -0.80160    -2.65297
O     -1.04152    -1.34495    -1.66068
H     -1.63943     0.23646    -2.87393
H     -0.11470    -1.12392    -1.92582
H     -1.83943    -1.37996    -3.57645
H     -2.92604    -0.82813    -2.28512
C      2.36170    -1.78526    -2.37798
O      1.38464    -0.76673    -2.53192
H      2.83059    -1.73500    -1.39642
H      1.83163     0.09200    -2.37356
H      1.87465    -2.75422    -2.49229
H      3.12797    -1.70560    -3.15076
C      3.95553     1.72762    -2.47925
O      2.64596     1.50229    -1.99396
H      4.28223     2.74509    -2.26011
H      2.62360     1.80419    -1.05715
H      4.66833     1.03151    -2.03022
H      3.96081     1.59079    -3.55942
C     -2.63795    -3.21265     0.69085
O     -2.43084    -1.81726     0.54407
H     -3.31669    -3.58310    -0.07897
H     -1.89277    -1.68530    -0.27037
H     -1.69604    -3.76034     0.61755
H     -3.08048    -3.40775     1.66716
C     -4.32875     1.55973     0.47711
O     -3.33393     2.15634     1.28207
H     -3.93515     0.71141    -0.09061
H     -2.90918     1.45783     1.79056
H     -5.17856     1.21463     1.07287
H     -4.68757     2.30759    -0.22909
C     -0.48849     1.57952    -0.16516
O      0.22248     1.05984     0.96894
H     -0.76833     2.61507     0.01033
H     -0.43383     0.76295     1.62512
H      0.15926     1.52120    -1.03651
H     -1.38345     0.99755    -0.36246
C      3.62365     1.68576     1.37754
O      2.59339     2.22766     0.55678
H      4.54638     2.21946     1.16237
H      1.74256     1.92133     0.91863
H      3.37981     1.81521     2.43200
H      3.76247     0.62350     1.17377
C     -1.96109    -0.54241     3.69598
O     -1.79337    -0.06065     2.37462
H     -1.69438     0.24960     4.39046
H     -2.07849    -0.77240     1.75204
H     -2.99848    -0.83612     3.86907
H     -1.31205    -1.40324     3.87014
