 36
-694.8517895222134
C     -0.75772     1.75329    -1.99550
O      0.61910     1.38378    -1.98955
H     -1.32613     1.18455    -1.25967
H      0.97941     1.56377    -1.11113
H     -0.87831     2.81914    -1.79665
H     -1.15460     1.54670    -2.98755
C      2.91049     1.73889     0.80933
O      1.64018     1.11254     0.73803
H      3.49534     1.52228    -0.08662
H      1.80239     0.13737     0.63918
H      2.76093     2.81241     0.88824
H      3.45903     1.38831     1.68342
C      0.96925    -2.23177     1.06301
O      1.89655    -1.45467     0.31358
H      1.24677    -2.16408     2.11361
H      1.65350    -1.53676    -0.63792
H     -0.05762    -1.88120     0.94346
H      1.02036    -3.27990     0.76907
C     -0.25305    -1.91428    -2.43148
O      1.00229    -1.29268    -2.19596
H     -0.62509    -1.67134    -3.42741
H      0.87894    -0.32750    -2.28603
H     -0.11204    -2.99207    -2.37782
H     -0.99878    -1.61697    -1.69268
C     -0.84067     0.80446     3.05950
O     -0.97506     1.05154     1.67030
H     -1.83684     0.75376     3.49767
H     -0.08372     1.17975     1.30246
H     -0.32573    -0.14091     3.24573
H     -0.28409     1.60650     3.54783
C     -3.86308    -0.55260     0.74917
O     -2.53093    -0.75177     0.33550
H     -3.96083    -0.57542     1.83889
H     -1.98730    -0.09332     0.79484
H     -4.25876     0.40346     0.39257
H     -4.47793    -1.35255     0.33725
