 60
-1158.097073002954
C      3.70586    -0.38173    -2.36836
O      2.56160     0.02348    -3.09782
H      4.18933    -1.18069    -2.92845
H      2.15137     0.76248    -2.63813
H      4.42325     0.43617    -2.24979
H      3.43314    -0.76059    -1.38038
C      0.78190    -1.39606    -0.61746
O      1.62995    -1.96865     0.36843
H      0.81492    -0.30987    -0.59783
H      1.58675    -1.39323     1.15968
H      1.11106    -1.72571    -1.59906
H     -0.25424    -1.70170    -0.47782
C     -1.06189     3.87957    -0.22527
O      0.04829     3.07319     0.16000
H     -1.98691     3.29934    -0.23794
H      0.47660     2.77190    -0.67026
H     -1.17340     4.69580     0.48849
H     -0.90523     4.30067    -1.21702
C     -1.48900     1.80436     2.87971
O     -0.83968     1.18457     1.78231
H     -2.46110     2.19994     2.58183
H     -0.48406     1.89867     1.19933
H     -1.64340     1.06719     3.66610
H     -0.88457     2.61521     3.28689
C      1.04588    -4.17312     2.72368
O      0.33861    -4.05113     1.49907
H      0.42252    -4.71451     3.43281
H      0.87517    -3.45196     0.94119
H      1.97431    -4.72813     2.58217
H      1.28535    -3.19081     3.13584
C     -3.52857    -0.68664    -0.56659
O     -2.57825     0.36884    -0.43210
H     -4.35829    -0.54338     0.12769
H     -2.07892     0.25832     0.39140
H     -3.92111    -0.66476    -1.58282
H     -3.06509    -1.65397    -0.37884
C     -1.97520    -2.00678     2.99621
O     -1.76931    -2.29612     1.62836
H     -2.75799    -1.25291     3.08359
H     -1.11353    -3.01657     1.56986
H     -2.30164    -2.88811     3.55158
H     -1.07053    -1.62029     3.46957
C      1.07946     3.27774    -3.17756
O      0.85492     2.24451    -2.22472
H      1.44826     4.16246    -2.65905
H      0.04422     1.74798    -2.50834
H      1.82407     2.96187    -3.90948
H      0.15295     3.52844    -3.69670
C      2.26591     0.72081     2.48667
O      1.28036    -0.29876     2.47824
H      3.21244     0.31479     2.12641
H      0.42774     0.13670     2.27260
H      1.97937     1.55523     1.84480
H      2.42029     1.09831     3.50045
C     -1.21012    -0.31858    -3.36793
O     -1.35543     0.93614    -2.71093
H     -0.16090    -0.49628    -3.60954
H     -1.81769     0.77503    -1.85822
H     -1.56493    -1.13237    -2.73523
H     -1.78510    -0.31603    -4.29347
