 36
-694.8540703307686
C     -0.45387     3.00739    -0.98619
O      0.36744     1.85408    -1.07052
H      0.04852     3.80328    -0.43306
H      0.64158     1.62599    -0.16301
H     -0.66247     3.36203    -1.99377
H     -1.40113     2.78087    -0.48728
C      2.99951    -0.21250    -1.52311
O      2.45697    -0.88352    -0.39933
H      2.23311     0.33234    -2.07652
H      2.08227    -0.22986     0.20061
H      3.78545     0.49045    -1.23340
H      3.43907    -0.96242    -2.18011
C      1.62517     1.60646     2.53966
O      0.97629     1.01273     1.42912
H      0.89429     1.99956     3.24650
H      0.36775     0.30061     1.75476
H      2.25911     0.87991     3.05087
H      2.24498     2.42170     2.17310
C     -3.56747    -0.31907     0.36711
O     -2.45867    -1.18896     0.22014
H     -3.23832     0.69629     0.60838
H     -1.98435    -0.91730    -0.59721
H     -4.16099    -0.28219    -0.54787
H     -4.19778    -0.68587     1.17494
C     -0.28438    -1.28084    -2.50965
O     -1.08958    -0.28676    -1.89287
H      0.44997    -1.68580    -1.81189
H     -0.53243     0.49169    -1.69354
H     -0.93216    -2.08511    -2.85608
H      0.23697    -0.87094    -3.37646
C      0.18208    -2.22535     1.95101
O     -0.55300    -1.00885     2.08616
H     -0.46666    -3.08412     2.11943
H     -1.34481    -1.10056     1.50720
H      0.62381    -2.30453     0.95609
H      0.97872    -2.23698     2.69315
