 36
-694.849388286202
C     -0.04236     1.46609    -2.50564
O     -1.16390     0.63374    -2.23209
H      0.57937     1.61599    -1.62274
H     -1.60959     0.98997    -1.43605
H      0.55265     0.98942    -3.28237
H     -0.37320     2.43663    -2.87605
C      3.41503     2.33865     0.93668
O      2.08032     1.94681     0.70210
H      3.52541     3.38688     0.65915
H      1.94951     1.09495     1.14987
H      3.69616     2.23273     1.98840
H      4.11903     1.75428     0.33587
C      2.36664    -1.42778     0.88270
O      1.69201    -0.53681     1.76322
H      3.21895    -0.91210     0.44127
H      0.75084    -0.77064     1.73078
H      2.73108    -2.30011     1.42748
H      1.70373    -1.75575     0.08044
C     -1.56807    -2.70945    -2.02771
O     -0.68719    -1.80610    -1.38150
H     -1.30317    -2.81721    -3.07984
H     -0.80505    -0.92510    -1.81933
H     -1.48582    -3.68510    -1.55059
H     -2.60463    -2.37042    -1.96228
C     -1.48826     2.49125     0.74338
O     -2.08750     1.31025     0.20662
H     -1.72235     3.31636     0.07230
H     -1.84044     0.55740     0.75946
H     -1.90215     2.72244     1.72634
H     -0.40669     2.38349     0.81658
C     -1.68458    -2.25053     1.86320
O     -0.93831    -1.25055     1.19240
H     -1.75856    -1.98059     2.91359
H     -0.83504    -1.53573     0.25307
H     -2.69069    -2.33030     1.44650
H     -1.19363    -3.22270     1.78138
