 36
-694.8467971665577
C     -1.00780     2.02625    -1.75561
O      0.10041     1.53408    -2.52304
H     -1.18773     3.08014    -1.97003
H     -0.00614     1.80781    -3.43451
H     -1.90394     1.44439    -1.95876
H     -0.76033     1.92237    -0.70363
C      2.49610     1.53318     0.46625
O      1.94997     0.65031     1.43780
H      3.55796     1.33449     0.32051
H      2.09379    -0.26175     1.09594
H      1.98588     1.43761    -0.49549
H      2.38407     2.55413     0.82769
C      0.91581    -2.46779     0.86071
O      1.97897    -1.74026     0.25638
H      1.07828    -3.54067     0.74468
H      1.68291    -1.53050    -0.65135
H      0.88666    -2.24268     1.92796
H     -0.04211    -2.19659     0.41538
C     -0.23258    -1.78454    -2.50589
O      0.86650    -0.99734    -2.06885
H      0.06229    -2.83339    -2.49048
H      0.61988    -0.06355    -2.18975
H     -1.09430    -1.64280    -1.85171
H     -0.51281    -1.53070    -3.53093
C     -3.42319    -0.52405     0.80293
O     -2.20989    -0.39281     0.09462
H     -3.28997    -0.33081     1.86957
H     -1.60554     0.12333     0.65463
H     -4.17650     0.17280     0.42186
H     -3.80834    -1.53901     0.68648
C     -0.97484     1.13384     3.15625
O     -0.65716     1.02667     1.78248
H     -2.02447     1.40729     3.24844
H      0.31682     0.91173     1.70993
H     -0.81021     0.18410     3.67240
H     -0.37290     1.90520     3.64017
