 54
-1042.278030939467
C      3.58538    -2.19566    -0.25013
O      3.33622    -1.03262    -1.02746
H      4.63757    -2.47501    -0.29895
H      3.80752    -0.28443    -0.59557
H      3.30432    -2.04039     0.79125
H      2.99629    -3.01973    -0.65228
C     -4.23997     1.84648    -2.88330
O     -3.51064     0.79063    -2.28422
H     -3.75439     2.19064    -3.79851
H     -2.55878     1.03717    -2.31663
H     -5.23428     1.48274    -3.13329
H     -4.33634     2.69295    -2.19881
C     -0.96389     2.34804    -0.87620
O     -0.97822     1.49069    -2.01488
H     -0.04011     2.92588    -0.83925
H     -0.29735     0.80856    -1.86545
H     -1.79781     3.04311    -0.96476
H     -1.06767     1.78882     0.05417
C      4.71480     2.15265    -0.64599
O      4.32024     1.11909     0.24420
H      5.68933     1.89375    -1.05424
H      3.44811     1.36314     0.61648
H      4.00588     2.26543    -1.47023
H      4.79615     3.10629    -0.12248
C     -0.10934    -2.79634     2.84275
O      1.25969    -2.90750     2.44222
H     -0.27022    -3.22102     3.83553
H      1.53015    -3.81744     2.56447
H     -0.36928    -1.74422     2.86377
H     -0.77256    -3.29069     2.12822
C      0.08751    -1.46293    -0.63973
O      0.79828    -0.37642    -1.24074
H     -0.87503    -1.11589    -0.27106
H      1.74535    -0.65217    -1.29555
H     -0.08284    -2.23850    -1.38789
H      0.63717    -1.89819     0.19255
C     -3.73343    -2.01001    -0.46224
O     -3.55309    -0.66432    -0.06035
H     -2.96985    -2.31562    -1.18316
H     -3.61278    -0.09943    -0.86089
H     -3.66210    -2.65014     0.41759
H     -4.71435    -2.15176    -0.91845
C     -2.57342     1.07705     2.66308
O     -1.93013     0.03000     1.96204
H     -2.73766     1.94846     2.02174
H     -2.53296    -0.23086     1.24287
H     -3.54000     0.75784     3.06061
H     -1.94287     1.37968     3.49989
C      1.41073     0.75481     2.07267
O      1.70290     1.38336     0.82807
H      1.77542    -0.27278     2.11041
H      1.26843     0.87333     0.12730
H      1.91339     1.32204     2.85304
H      0.34003     0.75679     2.26410
