 42
-810.6633103269652
C     -2.01995     2.11795    -0.59841
O     -1.39717     0.93611    -0.10598
H     -2.31920     2.76727     0.22506
H     -0.57425     1.19499     0.35986
H     -1.35093     2.66279    -1.26143
H     -2.90649     1.81642    -1.15143
C     -0.51289    -2.63713     3.24342
O     -0.15828    -2.67123     1.87105
H      0.27462    -3.11932     3.81921
H     -0.94387    -2.36950     1.36638
H     -0.62879    -1.60616     3.59092
H     -1.44895    -3.16867     3.41763
C      2.27962     2.19875    -1.89627
O      1.25244     2.91980    -1.24032
H      2.49002     2.69426    -2.84311
H      1.19959     2.58010    -0.33987
H      3.20354     2.17964    -1.31182
H      1.97556     1.17042    -2.10440
C     -0.36636     0.47410    -3.66309
O     -0.27087    -0.45880    -2.60410
H     -1.39724     0.57742    -4.01395
H     -0.56939    -0.03275    -1.79163
H      0.00147     1.45914    -3.36800
H      0.23576     0.10962    -4.49445
C     -2.49629    -2.25818    -0.69948
O     -2.22008    -1.59765     0.52876
H     -1.60208    -2.32743    -1.32029
H     -2.01292    -0.66859     0.33147
H     -2.85235    -3.26164    -0.47462
H     -3.27011    -1.72727    -1.25647
C      0.75980     1.87705     2.50385
O      0.91061     1.45395     1.15680
H      0.06274     1.22319     3.03225
H      1.34497     0.55606     1.16719
H      1.71833     1.85736     3.01993
H      0.37116     2.89311     2.50651
C      2.34287    -1.48840    -0.02220
O      1.80109    -0.98524     1.19689
H      3.32623    -1.04812    -0.17879
H      1.12104    -1.63314     1.49718
H      2.45093    -2.57114     0.02088
H      1.69820    -1.23389    -0.86685
