 48
-926.4748767008489
C      0.32844     2.40081     3.45300
O      0.27352     1.60816     2.28497
H      1.34187     2.36795     3.85339
H     -0.66136     1.53991     2.03026
H      0.07662     3.44505     3.24537
H     -0.35303     2.03579     4.22643
C      0.06951     2.80274    -1.35822
O     -0.62761     1.85706    -2.16165
H     -0.52368     3.71408    -1.31880
H     -0.09365     1.04110    -2.17937
H      0.22617     2.43702    -0.34136
H      1.03844     3.04403    -1.79841
C     -3.13912    -0.15668    -1.40093
O     -2.89771     1.16685    -0.95110
H     -3.51786    -0.15256    -2.42286
H     -2.13860     1.50676    -1.47723
H     -2.22958    -0.75832    -1.36568
H     -3.88716    -0.61558    -0.75556
C      3.12888     0.17330     0.39988
O      2.82794    -0.86803    -0.52502
H      2.29785     0.35955     1.08217
H      2.74404    -1.70883    -0.02009
H      4.01896    -0.07438     0.97666
H      3.32922     1.08207    -0.16641
C     -0.73302    -1.58158     1.06411
O     -0.27374    -2.36637    -0.03769
H     -1.64920    -1.05055     0.81261
H     -0.05467    -1.76642    -0.76190
H     -0.94548    -2.26499     1.88322
H      0.01061    -0.86096     1.39956
C      2.70168    -4.31818     0.13026
O      2.25118    -3.13936     0.78138
H      3.78806    -4.27965     0.06884
H      1.29049    -3.05577     0.63442
H      2.41736    -5.20660     0.69520
H      2.29329    -4.39370    -0.87994
C     -3.27519     2.43883     2.19303
O     -2.36230     1.52071     1.62027
H     -4.30491     2.09940     2.06520
H     -2.60619     1.40696     0.67344
H     -3.07099     2.52072     3.25988
H     -3.17181     3.42815     1.74025
C      1.00627    -1.09252    -3.28181
O      0.73921    -0.46559    -2.03725
H      1.14244    -2.16800    -3.14849
H      1.57145    -0.52086    -1.49980
H      0.15916    -0.92476    -3.94511
H      1.90433    -0.67472    -3.73804
