 60
-1158.1000638079852
C      4.32412     0.62112    -0.76812
O      3.62139     0.47407    -1.99176
H      3.70359     1.09059    -0.00191
H      3.02899     1.25004    -2.07596
H      4.62767    -0.36305    -0.41157
H      5.22204     1.22493    -0.91441
C     -1.06018     2.40704     3.07704
O     -0.89069     1.40116     2.09662
H     -0.42989     3.27106     2.85964
H      0.07076     1.16869     2.06930
H     -2.10069     2.72974     3.07126
H     -0.81305     2.03268     4.07192
C      1.19295    -1.87212    -2.53539
O      2.29440    -1.81778    -1.63984
H      0.74761    -0.88950    -2.69075
H      2.82582    -1.03051    -1.89123
H      1.51545    -2.26773    -3.49924
H      0.42994    -2.54187    -2.13849
C     -2.83287    -1.34309    -2.20491
O     -1.80142    -0.68491    -1.48366
H     -3.06697    -2.30412    -1.75117
H     -2.08859    -0.62204    -0.55588
H     -3.73901    -0.73377    -2.23747
H     -2.48409    -1.50525    -3.22249
C      0.45540    -2.36784     1.14702
O      1.69071    -1.69578     0.94506
H      0.10249    -2.18689     2.16295
H      1.92869    -1.80258    -0.00660
H     -0.31447    -2.03035     0.45414
H      0.58131    -3.44474     1.02135
C     -3.85490     0.43868     1.10898
O     -2.61503    -0.25519     1.11626
H     -3.83704     1.26987     0.39967
H     -1.95210     0.35990     1.51804
H     -4.64251    -0.25480     0.81667
H     -4.08235     0.83056     2.09963
C     -2.98657    -3.98802     1.63486
O     -3.26765    -2.97532     0.68518
H     -3.52320    -3.83096     2.57510
H     -2.99126    -2.12300     1.04551
H     -3.29954    -4.94099     1.21066
H     -1.91585    -4.04722     1.84876
C      2.48971     0.76273     3.12424
O      1.62455     0.71806     2.00345
H      3.49774     0.45907     2.83958
H      1.71924    -0.18079     1.60684
H      2.53224     1.78459     3.49712
H      2.13619     0.10312     3.92045
C      1.92386     3.29143    -0.81500
O      1.90993     2.53448    -2.01261
H      1.26241     4.15528    -0.88806
H      0.99052     2.22132    -2.13897
H      1.62290     2.69167     0.04779
H      2.93321     3.66598    -0.64886
C     -1.47004     2.55552    -1.52733
O     -0.60333     1.62971    -2.16500
H     -2.48934     2.47107    -1.91395
H     -0.96351     0.74111    -1.98033
H     -1.48287     2.41713    -0.44366
H     -1.11757     3.56295    -1.74762
