 54
-1042.2805915939416
C      1.90986    -2.96567    -2.40774
O      0.73250    -2.54046    -1.74656
H      1.78568    -2.93982    -3.49236
H      0.39085    -1.74489    -2.21439
H      2.76323    -2.33564    -2.14489
H      2.12848    -3.98854    -2.10704
C     -1.37489    -0.49626    -3.66203
O     -0.28312    -0.32397    -2.76834
H     -1.38842     0.30047    -4.40896
H     -0.60022     0.23672    -2.03271
H     -1.25856    -1.44254    -4.19104
H     -2.32002    -0.50508    -3.12309
C     -0.50559    -3.31661     1.50372
O     -0.44017    -2.16548     0.68620
H      0.43925    -3.86344     1.50762
H      0.01853    -2.39229    -0.14602
H     -0.71631    -2.99374     2.52390
H     -1.30396    -3.99101     1.18409
C      3.55220     3.42106     2.46354
O      3.84651     2.46355     1.46367
H      2.70241     3.11367     3.07524
H      3.11139     2.43797     0.84372
H      4.42738     3.50643     3.10577
H      3.34181     4.40617     2.03793
C     -3.02042    -2.52488    -1.39102
O     -2.86553    -1.30448    -0.69130
H     -3.37127    -3.32356    -0.73299
H     -2.09312    -1.40251    -0.11689
H     -3.76927    -2.38055    -2.17072
H     -2.08905    -2.84895    -1.86492
C      2.17097     0.31538    -0.43011
O      1.58726     1.58030    -0.08958
H      1.68601    -0.50479     0.09491
H      0.69671     1.60224    -0.48198
H      2.11070     0.13741    -1.50092
H      3.21888     0.34983    -0.13951
C     -1.60271     2.52795    -1.44226
O     -1.03524     1.38474    -0.81708
H     -2.67107     2.57435    -1.23614
H     -1.46958     1.28324     0.07468
H     -1.12736     3.43796    -1.07313
H     -1.45555     2.45303    -2.51855
C      1.07027     0.44793     3.09296
O      0.54904     1.62339     2.49134
H      0.72918     0.42550     4.12390
H      1.03901     1.75565     1.66285
H      0.71659    -0.45303     2.58925
H      2.15774     0.45507     3.08765
C     -2.70706     0.38527     2.26504
O     -1.97059     1.40364     1.59850
H     -3.13291     0.76902     3.19286
H     -1.13918     1.56486     2.09543
H     -3.51897     0.07250     1.61364
H     -2.08035    -0.48028     2.48780
