 36
-694.8484963071925
C     -0.41994     2.61434    -0.14738
O     -0.12541     1.87944    -1.32252
H     -1.44699     2.98442    -0.16846
H     -0.64500     1.05742    -1.26781
H     -0.28401     2.00824     0.74990
H      0.25639     3.46639    -0.10087
C      2.06589     1.36390    -4.01989
O      1.93647     0.72210    -2.76553
H      2.54542     2.34329    -3.92553
H      1.26650     1.20662    -2.25857
H      2.68446     0.73860    -4.66360
H      1.09463     1.50253    -4.50562
C     -1.90545    -2.63308     1.63244
O     -2.28088    -1.31050     1.26854
H     -2.43466    -2.94655     2.53274
H     -1.87402    -0.72147     1.93132
H     -2.17614    -3.30834     0.82150
H     -0.83207    -2.70146     1.81175
C      2.33166     0.29958     0.55799
O      1.19264    -0.49810     0.88321
H      2.03172     1.24761     0.11460
H      0.65188    -0.61158     0.09046
H      2.87636     0.48444     1.48282
H      2.98416    -0.22984    -0.13493
C     -1.11813    -1.47715    -2.08905
O     -1.13834    -0.54796    -1.01330
H     -1.10057    -2.50042    -1.71194
H     -1.68528    -0.87727    -0.26624
H     -1.99527    -1.34955    -2.72365
H     -0.21889    -1.30295    -2.67863
C     -0.05852    -0.32677     4.13398
O     -0.53567     0.08212     2.86462
H      0.85612     0.20896     4.39894
H      0.18954    -0.05922     2.22405
H     -0.82060    -0.10433     4.87838
H      0.15207    -1.39897     4.14786
