 48
-926.4760198613241
C      2.11305    -1.67001     0.58584
O      1.38406    -1.63259    -0.63783
H      1.98149    -2.64583     1.04545
H      1.78407    -0.93282    -1.19756
H      3.17430    -1.50379     0.39876
H      1.76755    -0.90684     1.28502
C      1.31862     2.22817     0.52234
O      1.12295     2.47998    -0.86313
H      1.17611     3.13757     1.10608
H      0.16837     2.66970    -0.99400
H      0.63993     1.45806     0.89368
H      2.34236     1.88805     0.68114
C     -1.24933     0.22463    -3.29857
O     -2.11485     0.37913    -2.17574
H     -1.48269    -0.69258    -3.84099
H     -1.88912    -0.31923    -1.53676
H     -1.40728     1.06867    -3.96821
H     -0.20013     0.20455    -2.99733
C     -2.45671    -0.10692     2.65031
O     -1.13672    -0.16865     2.13463
H     -3.20220    -0.01855     1.85586
H     -1.18894    -0.45439     1.20980
H     -2.68296    -0.99703     3.24172
H     -2.53782     0.76656     3.29706
C     -1.72881    -2.74942    -0.03264
O     -1.20137    -1.48017    -0.38776
H     -2.80800    -2.65751     0.07377
H     -0.22472    -1.59482    -0.52223
H     -1.51470    -3.48358    -0.80826
H     -1.30902    -3.09546     0.91231
C      1.24228    -2.07715     4.14683
O      0.25456    -2.39158     3.18688
H      2.23417    -2.01417     3.68607
H     -0.18124    -1.57371     2.90994
H      1.03772    -1.12672     4.64892
H      1.27054    -2.86506     4.89990
C     -2.27455     2.85246     0.10582
O     -1.53328     2.75618    -1.09807
H     -2.05924     3.81164     0.57201
H     -1.84168     1.94464    -1.55523
H     -3.34646     2.80221    -0.09152
H     -2.00976     2.05499     0.80267
C      3.62570     0.80417    -2.57211
O      2.37185     0.42456    -2.03381
H      3.92854     0.05928    -3.30453
H      1.93336     1.23209    -1.68783
H      3.55916     1.77365    -3.06762
H      4.38470     0.86114    -1.78765
