 36
-694.8576817579782
C      0.22392     3.46730    -0.96112
O      0.35140     2.16727    -0.42144
H     -0.08836     3.43183    -2.00852
H     -0.55293     1.86316    -0.17594
H     -0.50818     4.05134    -0.40324
H      1.18592     3.97314    -0.89629
C      3.03352     1.01595    -2.13328
O      2.00192     0.35507    -1.43063
H      2.63170     1.61107    -2.95620
H      1.38996     1.04453    -1.09359
H      3.60216     1.67775    -1.47414
H      3.70908     0.26937    -2.54697
C      2.40553    -0.40743     1.72042
O      2.28263    -1.33955     0.65511
H      3.45155    -0.29103     2.00639
H      2.28924    -0.81163    -0.16797
H      2.00293     0.56316     1.42850
H      1.85349    -0.77958     2.58423
C     -0.12488    -2.82837    -0.88362
O     -0.10023    -2.57115     0.51809
H      0.21484    -3.84335    -1.08981
H      0.78535    -2.19488     0.70829
H     -1.15095    -2.72103    -1.23807
H      0.51254    -2.11813    -1.41305
C     -2.84960     1.15324    -1.08015
O     -2.08120     1.30492     0.10394
H     -2.24900     0.69719    -1.87152
H     -2.14707     0.44557     0.57997
H     -3.71772     0.52220    -0.89612
H     -3.19070     2.13345    -1.40815
C     -2.22868    -1.15503     2.63393
O     -2.18619    -1.08758     1.21754
H     -3.22449    -0.87359     2.96844
H     -1.44014    -1.66391     0.93575
H     -2.01374    -2.16630     2.97897
H     -1.49550    -0.47425     3.07323
