 36
-694.8460823926728
C      3.24953     1.73893    -1.73222
O      3.07902     0.39444    -2.12740
H      2.80023     2.43598    -2.44640
H      2.13615     0.19560    -2.11320
H      2.81182     1.92837    -0.74725
H      4.31695     1.94592    -1.67893
C     -0.78795     2.62406    -0.38733
O     -1.12632     1.27692    -0.08887
H     -1.55479     3.07568    -1.01737
H     -0.58202     0.69210    -0.65696
H     -0.71781     3.18253     0.54545
H      0.17145     2.68234    -0.90306
C     -0.58052    -1.52038    -1.89900
O      0.34056    -0.55023    -1.39690
H     -1.52038    -1.47401    -1.34658
H      0.84089    -0.98249    -0.65615
H     -0.76971    -1.30844    -2.94760
H     -0.16959    -2.52518    -1.80858
C      2.89107    -1.11387     0.81972
O      1.52721    -1.51408     0.73294
H      3.33717    -1.46961     1.74854
H      1.02871    -1.05319     1.44141
H      3.43298    -1.54876    -0.01642
H      2.99232    -0.02901     0.77049
C     -4.60217    -0.02670     0.19627
O     -3.32414    -0.45511     0.62954
H     -4.61439     0.19849    -0.87456
H     -2.67397     0.22045     0.40033
H     -5.30677    -0.83642     0.38383
H     -4.93955     0.85898     0.74327
C     -0.97586    -0.77401     3.07798
O     -0.00706    -0.01569     2.35203
H     -1.66784    -1.27525     2.40213
H     -0.46990     0.58573     1.75460
H     -0.44167    -1.51718     3.66786
H     -1.53781    -0.12889     3.75465
