 36
-694.8482540558069
C     -1.04880     2.34407    -1.03865
O     -1.14825     1.25285    -0.12391
H     -1.76241     3.10275    -0.72367
H     -0.78180     0.44744    -0.50728
H     -0.04425     2.77286    -1.01994
H     -1.28233     2.02540    -2.05193
C      2.50568     0.16604    -0.84013
O      1.76852    -0.81233    -1.54359
H      3.01879    -0.26707     0.02140
H      1.14672    -1.20951    -0.90390
H      3.25336     0.58664    -1.50969
H      1.85890     0.97295    -0.48773
C      0.88114    -1.43295     3.50665
O     -0.23262    -1.17904     2.66772
H      0.71870    -1.01901     4.50262
H     -0.44353    -0.22008     2.72884
H      1.01444    -2.50780     3.59600
H      1.79271    -0.99632     3.09170
C     -0.16849    -0.58561    -4.54493
O     -0.24784     0.02011    -3.26478
H      0.04651    -1.65641    -4.47231
H      0.53411    -0.24649    -2.75341
H     -1.13087    -0.46160    -5.04043
H      0.60212    -0.11838    -5.16491
C     -1.36132    -2.20984    -0.38088
O     -0.18202    -1.55558     0.06732
H     -1.45870    -2.06301    -1.45511
H     -0.19765    -1.49475     1.05255
H     -1.31022    -3.27775    -0.17014
H     -2.24161    -1.79554     0.11120
C      0.41744     2.31827     2.60407
O     -0.68444     1.44358     2.46051
H      0.13408     3.34457     2.36726
H     -0.94675     1.47733     1.51492
H      0.76143     2.28510     3.63630
H      1.24341     2.02768     1.94897
