 54
-1042.2821243337462
C      3.48990    -2.57412    -2.44396
O      2.28069    -1.99237    -1.99320
H      3.97289    -1.93066    -3.18235
H      1.65160    -1.95959    -2.75554
H      4.15203    -2.69316    -1.58928
H      3.30764    -3.55227    -2.89228
C      0.23392    -0.29911    -4.13993
O      0.35424    -1.65548    -3.73829
H     -0.46228    -0.20925    -4.97510
H     -0.43218    -1.86356    -3.18365
H     -0.10823     0.32742    -3.31699
H      1.21020     0.05760    -4.46609
C     -2.10688    -0.98103    -1.34768
O     -1.50033    -2.15143    -1.87130
H     -1.37008    -0.26377    -0.98901
H     -0.95098    -2.54350    -1.16271
H     -2.69366    -0.52041    -2.14320
H     -2.77951    -1.21765    -0.52415
C     -3.16252     0.30403     2.27234
O     -1.87247     0.32554     1.68818
H     -3.21772    -0.52693     2.97402
H     -1.82962     1.12667     1.10942
H     -3.37240     1.23307     2.80522
H     -3.92531     0.16054     1.50677
C      2.09191     1.12250    -0.08902
O      1.19455     0.40032    -0.92234
H      2.00421     0.81274     0.95518
H      1.63088    -0.39866    -1.25798
H      3.13043     0.98606    -0.40114
H      1.86142     2.18598    -0.14472
C     -1.34270     2.68135    -1.02307
O     -1.54011     2.58519     0.38035
H     -2.18248     2.18846    -1.51380
H     -0.75020     2.92792     0.84218
H     -1.33155     3.72379    -1.34466
H     -0.42036     2.18679    -1.32670
C      0.32794    -2.20212     1.12700
O      0.31697    -2.97532    -0.06825
H      1.08627    -2.58002     1.81416
H      1.13887    -2.80788    -0.54922
H      0.52271    -1.15169     0.92674
H     -0.64211    -2.28284     1.61194
C      0.29925    -0.17081     4.35550
O      0.30819     0.63473     3.19244
H      1.22041     0.00487     4.90784
H     -0.49720     0.41534     2.67697
H     -0.55014     0.06907     4.99929
H      0.24626    -1.23029     4.09560
C      0.22747     4.06505     3.05815
O      0.60885     3.11694     2.07435
H      0.85414     3.97629     3.94715
H      0.66592     2.24765     2.50901
H      0.35323     5.06106     2.63940
H     -0.81632     3.93322     3.35525
