 60
-1158.0999938005687
C      1.56089     0.63878    -3.51775
O      1.26657    -0.50817    -2.73925
H      2.38188     0.40691    -4.19614
H      0.31353    -0.64657    -2.71099
H      0.70456     0.95872    -4.12127
H      1.86597     1.47123    -2.87926
C     -2.20913    -2.05271    -3.40478
O     -1.50502    -1.45354    -2.33189
H     -1.51957    -2.57263    -4.07175
H     -1.14413    -2.18281    -1.76021
H     -2.94932    -2.76671    -3.03815
H     -2.71940    -1.27055    -3.96494
C      1.42460    -0.03280     0.59533
O      0.78273     0.85559     1.50743
H      2.17620    -0.58239     1.15431
H      0.08788     1.34109     1.00174
H      0.72246    -0.74920     0.16918
H      1.90176     0.50518    -0.22015
C      4.28555     2.79295    -1.04438
O      2.88896     2.89500    -0.81809
H      4.72380     3.76675    -1.27881
H      2.74510     3.11383     0.11643
H      4.80151     2.37336    -0.17657
H      4.44934     2.12652    -1.89229
C     -0.65093     2.46889    -1.19016
O     -1.15077     2.01218     0.06309
H      0.33278     2.91260    -1.06436
H     -1.87147     1.37662    -0.15349
H     -0.56301     1.64383    -1.89478
H     -1.32227     3.21445    -1.61741
C     -0.43560    -4.08363     2.61728
O     -1.05825    -3.06801     1.84365
H     -0.27679    -4.96178     1.99138
H     -0.92835    -2.21656     2.32252
H      0.53302    -3.74964     2.99493
H     -1.06559    -4.36483     3.46281
C     -3.54156    -0.66136     0.20723
O     -2.90919     0.19745    -0.72822
H     -2.82341    -1.28826     0.73638
H     -2.45111    -0.37043    -1.37764
H     -4.07534    -0.04622     0.93211
H     -4.27408    -1.30259    -0.28464
C      0.86980    -3.54495    -0.73266
O     -0.52572    -3.25680    -0.73140
H      1.39892    -2.83748    -1.37274
H     -0.79923    -3.19010     0.21003
H      1.27734    -3.47760     0.27624
H      1.03534    -4.55253    -1.11306
C     -1.88046     0.03537     3.25630
O     -0.71139    -0.75711     3.07721
H     -2.74184    -0.62445     3.36279
H     -0.05366    -0.17928     2.64205
H     -1.79577     0.64286     4.15701
H     -2.04474     0.69130     2.40164
C      1.20948     4.19818     2.07038
O      2.25342     3.24996     1.89256
H      0.91792     4.26044     3.12040
H      1.86646     2.37402     2.02490
H      1.58120     5.16980     1.75277
H      0.33153     3.94433     1.47285
