 60
-1158.0909108803298
C     -0.54050     1.91889    -3.54200
O     -0.16227     0.55838    -3.39868
H     -0.53670     2.18590    -4.60074
H     -0.77041     0.13367    -2.78341
H     -1.54081     2.10647    -3.14646
H      0.15750     2.57619    -3.02190
C      0.81986     3.46061     0.77819
O      0.35739     2.75449    -0.36303
H      0.96986     2.80185     1.63391
H      0.99315     2.04027    -0.56787
H      1.75591     3.97953     0.56411
H      0.07132     4.20764     1.03987
C      1.88185    -2.18573    -2.67462
O      1.61474    -1.61730    -1.39652
H      1.41570    -3.16662    -2.76096
H      0.72894    -1.94932    -1.12524
H      1.49326    -1.54118    -3.46313
H      2.95913    -2.29920    -2.79216
C     -1.26452    -2.64675     0.42606
O     -0.88177    -2.41990    -0.92864
H     -1.00691    -3.67186     0.68657
H     -1.46807    -1.71534    -1.26323
H     -0.74543    -1.96538     1.10049
H     -2.33735    -2.51263     0.56613
C     -2.41475    -1.59351     3.97041
O     -3.49219    -1.30363     3.08167
H     -2.65291    -1.31468     4.99954
H     -4.26787    -1.77935     3.37699
H     -2.14701    -2.65322     3.93801
H     -1.55042    -1.02283     3.64433
C      1.63899    -2.17799     2.42474
O      0.97357    -1.00910     2.86321
H      1.88837    -2.13382     1.36179
H      1.52372    -0.26545     2.58120
H      2.55581    -2.35220     2.99265
H      0.98180    -3.03380     2.59032
C     -3.64268    -0.22453    -2.20281
O     -2.34182    -0.27006    -1.64670
H     -4.37860    -0.56891    -1.47484
H     -2.28442     0.43837    -0.95371
H     -3.88979     0.79291    -2.50753
H     -3.66477    -0.87123    -3.07621
C      2.82675     1.34309    -2.12471
O      2.20423     0.85458    -0.94157
H      3.85363     0.98180    -2.18458
H      1.93908    -0.08556    -1.12225
H      2.27338     1.03029    -3.00570
H      2.84262     2.43154    -2.08895
C      4.06914     0.79680     2.11901
O      2.68372     0.87806     1.82333
H      4.66536     0.70890     1.20826
H      2.56881     0.89428     0.85841
H      4.37892     1.69225     2.65828
H      4.26569    -0.07389     2.74690
C     -1.87947     1.22328     1.47033
O     -2.03014     1.64009     0.11295
H     -2.79092     0.73662     1.80799
H     -1.20858     2.12250    -0.12927
H     -1.04765     0.52583     1.57853
H     -1.69210     2.08087     2.11706
