 30
-579.0335457637702
C      2.89759     0.40977    -2.31414
O      2.33018    -0.13339    -1.14112
H      2.21565     1.10974    -2.80724
H      1.47532    -0.52760    -1.38834
H      3.80242     0.95184    -2.04001
H      3.16492    -0.36909    -3.03361
C     -0.74149     2.22821    -1.12802
O     -1.58611     1.09406    -0.98116
H      0.31174     1.93944    -1.11487
H     -1.68571     0.94576    -0.01823
H     -0.96615     2.70816    -2.07772
H     -0.91231     2.94579    -0.32412
C      1.92439    -0.28172     2.10062
O      0.60361    -0.76625     2.37933
H      2.48942    -1.01364     1.52626
H      0.65718    -1.53027     2.95285
H      1.82664     0.61531     1.49447
H      2.44326    -0.03672     3.02751
C     -2.65441    -0.13815     2.17200
O     -1.56727     0.60199     1.64267
H     -3.57642     0.40152     1.96168
H     -0.74336     0.15237     1.90944
H     -2.71340    -1.12930     1.71368
H     -2.55936    -0.25463     3.25315
C     -0.65706    -2.10015    -1.00498
O     -0.17649    -1.04036    -1.81202
H     -1.66704    -2.39047    -1.30271
H     -0.75946    -0.26806    -1.65376
H     -0.00241    -2.96052    -1.13805
H     -0.66838    -1.82751     0.05299
