 42
-810.6642848449026
C      2.29296    -1.52220    -1.61029
O      1.01072    -1.29269    -2.18082
H      2.71955    -2.45233    -1.98701
H      0.40377    -1.90511    -1.71057
H      2.95468    -0.70333    -1.89024
H      2.23076    -1.57330    -0.52164
C     -0.28826    -2.76003     2.89776
O      0.49408    -2.17917     1.86481
H     -1.35093    -2.73916     2.63983
H      0.61070    -1.22882     2.09326
H      0.02051    -3.79466     3.03687
H     -0.15101    -2.22224     3.83478
C     -0.22883    -4.27143    -0.67077
O     -0.39979    -2.87245    -0.56107
H      0.74248    -4.58608    -0.28248
H     -0.09890    -2.61463     0.33567
H     -1.01137    -4.80148    -0.12414
H     -0.29287    -4.55298    -1.72117
C     -0.48321     1.75009    -2.72945
O      0.28328     1.21999    -1.65456
H     -1.02727     2.62796    -2.38658
H      0.57230     0.31609    -1.91889
H      0.16602     2.04274    -3.55565
H     -1.20197     1.01515    -3.09673
C     -2.14265     0.39839     0.46420
O     -1.10572     1.35963     0.62162
H     -1.76349    -0.53253     0.03912
H     -0.57602     1.34618    -0.21060
H     -2.57220     0.19289     1.44362
H     -2.92828     0.79324    -0.18007
C      1.86095     1.00039     1.89565
O      0.66532     0.42133     2.40723
H      1.87042     0.98084     0.80442
H     -0.06701     0.84329     1.91437
H      1.95802     2.03301     2.23066
H      2.70938     0.42899     2.26709
C     -0.32810     4.68839    -0.28245
O     -1.62962     4.16769    -0.10896
H      0.26680     4.07308    -0.96167
H     -1.54748     3.33118     0.35771
H     -0.41854     5.68621    -0.70907
H      0.20759     4.76888     0.66843
