 54
-1042.2794860280005
C      1.58192    -2.61258    -1.80279
O      0.51711    -2.33472    -0.90965
H      2.54607    -2.35239    -1.36048
H      0.52868    -1.36716    -0.75653
H      1.59547    -3.68263    -2.01165
H      1.45949    -2.07361    -2.74236
C     -0.97441    -1.38487    -5.24996
O     -0.55487    -0.99349    -3.95710
H     -1.42475    -2.38171    -5.24180
H     -1.33316    -1.00620    -3.37053
H     -1.70640    -0.68966    -5.67137
H     -0.10551    -1.40867    -5.90902
C     -2.86481    -0.54578    -1.16802
O     -2.81216    -1.26406    -2.38511
H     -1.93500    -0.64265    -0.60246
H     -2.61270    -2.19726    -2.15493
H     -3.03253     0.50855    -1.39427
H     -3.68800    -0.89149    -0.54059
C     -0.79436     3.20345     4.81386
O     -0.78416     2.13488     3.88370
H     -0.84794     2.78787     5.81837
H     -0.77721     2.53145     2.98890
H      0.11208     3.80825     4.72579
H     -1.66021     3.84705     4.65809
C      1.10364     1.08479    -1.72355
O      0.77906     0.27296    -0.60567
H      0.51400     0.76706    -2.57761
H      1.29909     0.60097     0.15297
H      0.88409     2.13516    -1.52613
H      2.16033     0.99730    -1.98147
C     -1.34265     2.67616     0.45559
O     -0.35526     3.08034     1.39772
H     -2.31359     2.69875     0.94785
H      0.49702     2.69004     1.15987
H     -1.36872     3.37323    -0.38354
H     -1.15420     1.67009     0.08785
C     -1.31159    -4.30888    -2.88370
O     -1.69780    -3.59316    -1.72598
H     -0.58706    -3.75354    -3.47979
H     -0.88291    -3.20744    -1.33699
H     -0.87779    -5.27381    -2.61185
H     -2.19706    -4.49359    -3.49175
C      2.24473     0.99815     4.94275
O      1.45902     0.69926     3.80102
H      3.23014     0.55442     4.81843
H      0.57365     1.10847     3.93852
H      2.35441     2.07669     5.07833
H      1.78811     0.57930     5.83909
C      3.45849     1.70614     1.27955
O      2.07869     1.40314     1.39840
H      4.07252     0.86525     1.60308
H      1.90868     1.07276     2.32183
H      3.68205     1.92344     0.23643
H      3.71184     2.58023     1.88103
