 42
-810.6669865799399
C     -3.10230     0.97217     1.93265
O     -2.17152     0.69144     0.90082
H     -3.24256     2.04955     2.03737
H     -1.27996     0.70842     1.31452
H     -4.06154     0.52268     1.67997
H     -2.76473     0.56589     2.88752
C      2.49116    -1.49646     0.86672
O      2.19024    -0.16265     0.48268
H      1.59610    -2.12191     0.82406
H      1.80693    -0.21378    -0.43179
H      3.24981    -1.91863     0.20917
H      2.86940    -1.48497     1.88677
C     -1.32948    -2.31249    -3.37208
O     -0.72165    -2.26665    -2.09063
H     -1.57294    -3.34055    -3.64305
H     -1.43345    -2.10635    -1.43028
H     -2.24206    -1.71468    -3.39435
H     -0.63473    -1.91311    -4.11043
C      3.12485     2.86898    -1.08110
O      2.58203     2.68792     0.21393
H      4.14529     2.48236    -1.14771
H      2.62580     1.74574     0.41813
H      2.51679     2.37614    -1.84375
H      3.14659     3.93810    -1.29022
C     -2.05902    -2.49217     0.95316
O     -2.48431    -1.71481    -0.16183
H     -1.60095    -3.41223     0.58922
H     -2.46015    -0.78026     0.14168
H     -1.32428    -1.94542     1.54592
H     -2.90814    -2.75470     1.58633
C      0.40725     1.97674     2.70885
O      0.18157     0.69406     2.12557
H      0.80065     2.67997     1.97626
H      0.97366     0.44066     1.61477
H     -0.54677     2.35356     3.07935
H      1.09921     1.89990     3.54846
C      0.02172     0.84505    -1.81224
O      0.96502    -0.23096    -1.83589
H      0.44951     1.68820    -1.27374
H      0.44277    -1.05068    -1.99298
H     -0.20695     1.16438    -2.82844
H     -0.90444     0.55053    -1.32230
