 42
-810.6600197211445
C     -3.34625     0.35955    -0.46322
O     -2.44436     0.58368    -1.54202
H     -3.72427     1.31980    -0.11295
H     -1.86808    -0.19763    -1.58041
H     -4.18798    -0.25209    -0.78950
H     -2.83834    -0.14126     0.36281
C     -0.16576    -2.72493    -1.56297
O     -0.71011    -1.50066    -1.08091
H      0.36874    -2.52449    -2.48935
H     -0.76616    -1.57018    -0.09850
H      0.53030    -3.14390    -0.83987
H     -0.96639    -3.43732    -1.76224
C      0.06750     1.85894     2.18994
O      0.79237     0.66825     1.87667
H     -0.61128     2.12785     1.38242
H      1.20170     0.76200     1.00363
H     -0.50387     1.67362     3.09790
H      0.75389     2.68610     2.37210
C     -1.64698     3.98348    -1.52682
O     -1.02402     2.84379    -0.96630
H     -1.05501     4.86050    -1.26613
H     -1.53344     2.05785    -1.23682
H     -1.70555     3.91711    -2.61655
H     -2.65950     4.12509    -1.13633
C     -0.21820    -2.65175     2.25727
O     -0.70065    -1.51367     1.56099
H      0.76597    -2.94464     1.89408
H     -0.15222    -0.73850     1.81230
H     -0.15982    -2.45579     3.32971
H     -0.91712    -3.47318     2.10401
C      3.26429    -1.66292     1.54308
O      2.58325    -2.04163     0.35857
H      3.57292    -2.57425     2.05640
H      2.33140    -1.24332    -0.12230
H      4.15814    -1.07190     1.32509
H      2.62507    -1.08842     2.21642
C      1.93855     1.40574    -1.74589
O      1.58717     0.27312    -0.94969
H      1.79992     1.19246    -2.80643
H      0.76830    -0.12362    -1.27957
H      1.32751     2.26194    -1.46761
H      2.98756     1.62340    -1.56080
