 42
-810.6649929304149
C     -2.57943    -1.72949    -2.01173
O     -1.41217    -1.10827    -1.50881
H     -3.30011    -1.90728    -1.21226
H     -1.70467    -0.33790    -0.96042
H     -3.04860    -1.10400    -2.77346
H     -2.29998    -2.68277    -2.45514
C     -0.70372    -1.24102     2.83420
O      0.64775    -1.40389     2.41866
H     -0.70828    -0.75097     3.80675
H      0.62292    -1.87456     1.55751
H     -1.26816    -0.62933     2.12823
H     -1.19300    -2.21013     2.93575
C      1.80040    -2.04217    -0.64130
O      0.55131    -2.40947    -0.06555
H      1.89316    -2.44780    -1.64721
H     -0.15316    -2.01490    -0.60681
H      1.92451    -0.95871    -0.68701
H      2.59231    -2.46333    -0.02402
C      1.25800    -0.37139    -4.17488
O      0.83812     0.10256    -2.91105
H      0.42458    -0.47630    -4.87722
H      0.07177    -0.40536    -2.61988
H      1.96356     0.34998    -4.58726
H      1.76607    -1.33701    -4.09231
C     -3.05261     1.87307    -0.61779
O     -2.15288     0.92520    -0.06636
H     -4.04870     1.43654    -0.66179
H     -1.44146     1.43694     0.38551
H     -3.09411     2.76915    -0.00107
H     -2.74453     2.16059    -1.62637
C      0.60961     2.84745    -0.17372
O     -0.15508     2.36678     0.93083
H      0.15480     3.76850    -0.53524
H      0.48206     1.93581     1.53758
H      1.63153     3.05774     0.13803
H      0.63250     2.11260    -0.98132
C      2.50764     1.29790     3.45408
O      1.69287     1.04641     2.32313
H      3.00873     2.25249     3.30972
H      1.41062     0.10553     2.35917
H      1.90877     1.34300     4.36691
H      3.26354     0.51897     3.56914
