 42
-810.6689963256583
C     -2.24657    -2.30807    -2.46892
O     -1.64096    -1.41871    -1.54787
H     -2.42919    -3.27938    -2.00685
H     -0.77116    -1.81148    -1.29235
H     -3.20263    -1.89362    -2.78606
H     -1.61677    -2.45530    -3.35022
C      1.69841    -1.26669    -1.32292
O      0.78275    -2.26351    -0.88045
H      1.44009    -0.97850    -2.34218
H      0.92252    -2.35124     0.08930
H      1.65949    -0.38213    -0.68702
H      2.71626    -1.65633    -1.32815
C     -0.26282    -1.47634     2.08362
O      0.99621    -2.05702     1.76973
H     -0.21879    -0.38888     2.01549
H      1.66361    -1.36951     1.96945
H     -1.01087    -1.83474     1.37531
H     -0.57548    -1.75872     3.08970
C     -2.11440     1.47248    -3.29029
O     -1.35489     1.16719    -2.13767
H     -3.17304     1.24535    -3.14037
H     -1.46778     0.20919    -1.95347
H     -2.01080     2.53392    -3.50833
H     -1.75907     0.90684    -4.15423
C     -2.41578     1.44600     0.92946
O     -1.49779     2.32060     0.28762
H     -2.15015     1.36362     1.98361
H     -1.48411     2.05393    -0.65539
H     -3.42992     1.83994     0.86016
H     -2.38794     0.45243     0.47774
C      2.67857     0.37861     3.61379
O      2.51514     0.09915     2.23414
H      3.17404    -0.46934     4.08408
H      2.00787     0.84183     1.84180
H      3.29645     1.26594     3.76199
H      1.71395     0.53716     4.10319
C      1.70164     2.40252    -0.15207
O      1.04863     1.97230     1.03777
H      1.11270     2.13968    -1.03313
H      0.08922     2.13509     0.89489
H      1.85997     3.48074    -0.13426
H      2.67048     1.90577    -0.21417
