 48
-926.4780012365828
C      1.28908    -3.35148     3.10993
O      1.25309    -2.45550     2.01460
H      0.46184    -3.17311     3.80015
H      0.35216    -2.50695     1.62309
H      1.23878    -4.38510     2.76318
H      2.22740    -3.21497     3.64672
C     -1.91419     2.21520    -3.18162
O     -2.09723     2.69254    -1.86534
H     -2.82589     1.70199    -3.49312
H     -1.30301     3.18957    -1.62296
H     -1.73255     3.03028    -3.88848
H     -1.08608     1.50500    -3.24085
C     -2.91510    -0.64801    -1.30464
O     -1.68764    -1.37078    -1.30230
H     -3.43510    -0.80638    -2.25129
H     -0.97190    -0.77404    -1.59766
H     -3.54903    -1.03949    -0.50740
H     -2.75740     0.41864    -1.15290
C      1.57957    -0.80622    -1.45296
O      0.54375     0.14448    -1.67620
H      1.47199    -1.60541    -2.18533
H      0.52842     0.75842    -0.92219
H      2.55899    -0.34345    -1.59868
H      1.54048    -1.24356    -0.45339
C     -1.90210    -3.77520     0.99652
O     -1.17526    -2.55938     0.99676
H     -1.38455    -4.54012     0.41296
H     -1.35277    -2.11716     0.13255
H     -2.01673    -4.12521     2.02131
H     -2.89634    -3.63200     0.57343
C     -0.81817     1.34695     1.23690
O      0.50717     1.57908     0.74595
H     -1.49554     2.01533     0.71045
H      1.12722     1.07425     1.32904
H     -1.13185     0.31734     1.06241
H     -0.86472     1.56022     2.30370
C      1.53568     3.44069    -1.82043
O      0.39940     3.60924    -0.98748
H      1.40295     2.60084    -2.50480
H      0.50186     2.98502    -0.24785
H      1.67387     4.35073    -2.40043
H      2.43560     3.26892    -1.22587
C      3.46125     0.14092     1.99858
O      2.06445     0.07468     2.23689
H      4.00923    -0.46876     2.71842
H      1.79659    -0.87132     2.20773
H      3.70420    -0.20883     0.99190
H      3.78719     1.17441     2.10057
