 60
-1158.0965598357288
C      3.99506    -2.05976    -0.17630
O      3.85508    -0.83332    -0.86126
H      3.13893    -2.24728     0.47307
H      3.32861    -0.99486    -1.65946
H      4.10029    -2.90295    -0.86541
H      4.89491    -2.01932     0.43958
C      1.18440     3.59031    -0.54794
O      0.67959     2.26907    -0.64940
H      2.19810     3.60737    -0.94445
H     -0.22978     2.26915    -0.26367
H      0.56829     4.28865    -1.11598
H      1.21538     3.91935     0.49370
C      2.58982    -1.42606    -4.34212
O      2.18225    -1.18602    -3.00987
H      1.75411    -1.78354    -4.94958
H      1.55950    -0.43040    -3.02935
H      2.99535    -0.52258    -4.80189
H      3.36326    -2.19240    -4.33298
C     -0.88406     0.49311    -3.04327
O      0.48226     0.86480    -2.96371
H     -1.17303    -0.18095    -2.23673
H      0.60115     1.41721    -2.16993
H     -1.53373     1.36980    -3.00820
H     -1.04385    -0.01435    -3.99335
C      3.49131     1.10033     1.62362
O      2.06768     1.08128     1.59397
H      3.89613     0.64520     0.72129
H      1.76580     1.44896     0.75070
H      3.86413     2.12111     1.73383
H      3.81587     0.53093     2.49363
C     -3.46043    -3.17826     1.76164
O     -3.31933    -1.77579     1.91850
H     -4.13797    -3.36749     0.92970
H     -2.55839    -1.62632     2.53209
H     -2.49942    -3.65068     1.54787
H     -3.87871    -3.62374     2.66444
C     -4.14540    -0.22590    -0.98412
O     -3.04356    -0.13739    -0.09932
H     -4.99781     0.34744    -0.61425
H     -3.20482    -0.75579     0.65668
H     -3.85343     0.16836    -1.95862
H     -4.45864    -1.26102    -1.12142
C     -1.16851     0.20340     3.58517
O     -1.15533    -1.20057     3.34175
H     -0.33609     0.48809     4.22815
H     -0.36117    -1.36781     2.78928
H     -1.10617     0.77126     2.65551
H     -2.09650     0.45293     4.09804
C      0.33009    -1.30140     0.29215
O      0.90801    -1.30773     1.59436
H      1.09403    -1.29417    -0.48269
H      1.41438    -0.46943     1.67653
H     -0.27566    -2.19872     0.16406
H     -0.31503    -0.43672     0.14236
C     -2.73486     3.12491     0.42602
O     -1.73643     2.12779     0.29949
H     -2.26532     4.06137     0.72249
H     -2.19959     1.27014     0.18228
H     -3.26171     3.27638    -0.51911
H     -3.46284     2.84660     1.18935
