 48
-926.4748873948952
C     -3.04367    -0.31071     2.36879
O     -1.72184    -0.69672     2.71103
H     -3.74192    -1.13701     2.52048
H     -1.39337    -1.30271     2.02956
H     -3.33666     0.51228     3.01992
H     -3.10341     0.02318     1.33108
C     -0.50551    -3.41641     0.03236
O     -0.59534    -2.09039     0.52314
H      0.29992    -3.49983    -0.69623
H      0.32099    -1.70921     0.49249
H     -0.32020    -4.11352     0.84982
H     -1.44335    -3.68646    -0.45098
C     -1.76330    -1.07797    -2.53158
O     -1.98365    -0.48771    -1.25931
H     -2.18691    -2.08198    -2.57702
H     -1.58242    -1.06469    -0.58337
H     -2.26967    -0.47320    -3.28302
H     -0.69920    -1.13147    -2.77423
C      2.16557     2.38538     0.39459
O      1.60364     1.46267    -0.53452
H      2.24699     3.37278    -0.05991
H      0.66789     1.73298    -0.70364
H      1.56144     2.43903     1.29804
H      3.16836     2.04378     0.64765
C     -1.64479     2.59461     0.09665
O     -0.95786     1.96857    -0.98161
H     -1.47189     3.66753     0.04216
H     -1.39076     1.10150    -1.13821
H     -2.71952     2.42238     0.02115
H     -1.29543     2.22779     1.06169
C      2.75878    -1.74559    -0.48934
O      1.77978    -1.08176     0.29924
H      2.90360    -2.74838    -0.08960
H      1.75605    -0.14112     0.01873
H      2.44406    -1.81572    -1.53091
H      3.71210    -1.21766    -0.44414
C      1.29161     0.66404     3.55435
O      0.17296     1.25465     2.92399
H      1.01352     0.15351     4.47992
H     -0.52958     0.58454     2.90339
H      1.78095    -0.05628     2.89471
H      2.00723     1.44862     3.80366
C      0.96564     0.85429    -4.00525
O      1.78045     0.10073    -3.12594
H      0.75730     0.24137    -4.88300
H      1.89116     0.61218    -2.31462
H      0.01443     1.12340    -3.53941
H      1.46723     1.76823    -4.33406
