 18
-347.4080722693392
C     -1.23342     2.23903    -0.20289
O     -0.59050     1.15891     0.46127
H     -0.87528     3.16092     0.24874
H     -0.87921     0.33587     0.04797
H     -0.98915     2.24555    -1.26710
H     -2.31744     2.18357    -0.08162
C     -1.86079    -2.38246     0.11614
O     -0.93749    -1.54813    -0.58382
H     -2.85579    -2.00317    -0.10330
H     -0.04669    -1.88876    -0.46719
H     -1.79420    -3.41830    -0.22155
H     -1.69257    -2.33827     1.19367
C      2.52379    -0.37325    -0.08516
O      2.26217     1.00191     0.06854
H      3.59570    -0.50719    -0.23077
H      1.32934     1.10275     0.29119
H      2.22025    -0.94707     0.79869
H      2.00807    -0.78057    -0.96289
