 18
-347.40634001758514
C     -1.58227     1.89918     0.28106
O     -0.49909     1.76083    -0.62404
H     -2.41053     2.35406    -0.26219
H      0.19016     1.25814    -0.18241
H     -1.90477     0.93184     0.67128
H     -1.32355     2.55127     1.12110
C     -1.53159    -1.80656    -0.53271
O     -0.76825    -1.69537     0.65780
H     -2.50174    -2.22413    -0.26451
H      0.03700    -1.21938     0.44072
H     -1.68245    -0.83362    -1.00446
H     -1.05431    -2.47822    -1.25237
C      2.77253    -0.27915    -0.41611
O      1.66461     0.03216     0.42511
H      2.38732    -0.32569    -1.43064
H      1.96900     0.17426     1.32057
H      3.53677     0.49558    -0.35941
H      3.20087    -1.24454    -0.14854
