 60
-1158.0959596461612
C      3.64521    -2.84800    -0.30424
O      2.65492    -2.34013    -1.17391
H      3.32464    -3.82450     0.06046
H      3.04924    -1.58529    -1.63805
H      4.60780    -2.96861    -0.80844
H      3.79103    -2.18901     0.55812
C     -0.20312     3.95095    -1.85367
O      0.64650     3.02035    -1.20592
H      0.34540     4.41111    -2.67306
H      0.08519     2.52369    -0.58258
H     -1.09315     3.46577    -2.26447
H     -0.52050     4.73751    -1.16716
C      4.61351    -0.11711    -3.52872
O      3.72267    -0.13668    -2.42861
H      4.23719    -0.73734    -4.34625
H      2.97363     0.45819    -2.65449
H      4.75460     0.90057    -3.89772
H      5.57690    -0.50607    -3.20342
C      0.51691     0.27191    -2.90435
O      1.54580     1.25049    -3.00848
H      0.94070    -0.71837    -3.06602
H      1.31056     1.97583    -2.39476
H      0.05403     0.28783    -1.91696
H     -0.24139     0.45292    -3.66757
C      2.46919     0.88609     0.82160
O      1.44821     1.01691     1.80578
H      3.36220     0.51419     1.32088
H      0.65361     1.31746     1.34296
H      2.20086     0.18255     0.03415
H      2.70769     1.84396     0.36182
C     -4.35879    -2.53884     1.47395
O     -3.97936    -1.17641     1.38717
H     -4.90931    -2.80631     0.57369
H     -3.38761    -0.98553     2.15410
H     -3.48555    -3.19014     1.55971
H     -5.00165    -2.70436     2.33962
C     -3.35846     0.15408    -1.72118
O     -2.57986    -0.15472    -0.57869
H     -4.14512     0.87073    -1.47773
H     -3.18091    -0.57444     0.08736
H     -2.71213     0.58609    -2.48482
H     -3.81734    -0.74679    -2.12915
C     -2.33405    -1.36124     4.58625
O     -2.23715    -0.73973     3.31861
H     -2.21792    -2.44427     4.50303
H     -1.33631    -0.93259     2.96284
H     -1.56773    -0.98382     5.26387
H     -3.31275    -1.14194     5.01047
C      0.06993    -1.82625     1.00615
O      0.14878    -1.31510     2.33753
H     -0.69645    -2.59821     0.96873
H      0.76196    -0.55485     2.33474
H     -0.20353    -1.04944     0.29466
H      1.01711    -2.25914     0.69594
C     -1.67837     2.31892     1.41020
O     -0.91862     1.57991     0.45715
H     -1.04436     3.09722     1.83315
H     -1.50720     0.87694     0.07809
H     -2.53450     2.79337     0.92958
H     -2.01969     1.66633     2.21126
