 60
-1158.1000141964303
C      2.99386     3.01274    -3.22579
O      2.27034     1.87259    -2.79928
H      3.54654     3.46019    -2.39638
H      1.65738     2.16597    -2.08867
H      3.69885     2.70358    -3.99622
H      2.31989     3.76133    -3.64768
C     -2.20643     2.17572     1.90799
O     -2.09626     0.76597     2.10731
H     -1.31786     2.55638     1.40757
H     -1.21226     0.57289     2.49725
H     -3.07517     2.37580     1.28253
H     -2.33982     2.68651     2.86102
C      3.93904    -1.15050    -3.01300
O      3.50237    -0.39240    -1.90330
H      3.10897    -1.40222    -3.68099
H      3.11341     0.42576    -2.25350
H      4.69365    -0.61606    -3.59669
H      4.38002    -2.07759    -2.64669
C     -3.78020    -1.05285    -0.37928
O     -2.49674    -0.45905    -0.23144
H     -3.91759    -1.86215     0.33331
H     -2.43165    -0.06517     0.66596
H     -4.56383    -0.30815    -0.23583
H     -3.85315    -1.44762    -1.39177
C      2.56870    -2.01859     1.25951
O      1.18545    -1.98025     1.58386
H      2.88648    -3.04533     1.06869
H      0.67303    -2.11678     0.76035
H      2.80898    -1.40362     0.39290
H      3.13110    -1.64883     2.11698
C     -2.26204    -2.56649     2.81167
O     -3.41820    -1.74481     2.84804
H     -1.53736    -2.28565     3.57792
H     -3.12900    -0.82692     2.83960
H     -2.57415    -3.59442     2.99632
H     -1.75948    -2.53381     1.84525
C      0.34779    -1.62049    -1.83357
O     -0.31510    -2.04718    -0.65017
H      0.36967    -0.53332    -1.91466
H     -1.13544    -1.53175    -0.56291
H      1.37362    -1.97513    -1.83489
H     -0.15047    -2.02942    -2.71396
C      0.82104     0.00212     4.37709
O      0.27162     0.02128     3.06959
H      1.89120    -0.20656     4.34305
H      0.65895    -0.73341     2.57200
H      0.66935     0.97769     4.83506
H      0.33573    -0.75985     4.99071
C      0.93759     1.39573     0.14580
O      0.59170     2.41357    -0.79409
H      0.88098     1.77562     1.16261
H     -0.31910     2.23987    -1.10081
H      0.28043     0.53522     0.04962
H      1.95303     1.05490    -0.04263
C     -1.50464     1.31916    -3.20107
O     -1.76917     1.66651    -1.84599
H     -0.45015     1.48273    -3.42830
H     -2.11225     0.88510    -1.38205
H     -1.73878     0.26964    -3.40020
H     -2.10396     1.94195    -3.86410
