 30
-579.0393409078845
C      0.79387     1.99369     2.35284
O      1.35904     0.72640     2.60883
H      0.72498     2.53341     3.29650
H      1.52769     0.31100     1.75340
H      1.41200     2.58296     1.66880
H     -0.20946     1.91442     1.92412
C     -1.66197    -0.94351     2.36125
O     -1.22200    -1.09524     1.01331
H     -1.76974    -1.92131     2.83316
H     -0.25487    -1.09256     0.98156
H     -0.96458    -0.33982     2.93754
H     -2.63557    -0.45614     2.34244
C      2.16362    -1.82028    -0.19251
O      1.52104    -0.61576     0.19505
H      2.66732    -2.23611     0.67580
H      1.25129    -0.14086    -0.63040
H      1.43239    -2.53982    -0.56750
H      2.89705    -1.62748    -0.97553
C      0.84205     1.86260    -2.33410
O      0.63234     0.49997    -1.98740
H      1.66141     2.26520    -1.73665
H     -0.33425     0.34405    -1.90083
H      1.10692     1.94167    -3.38864
H     -0.05497     2.45272    -2.14413
C     -2.45941    -1.16897    -2.12650
O     -1.91265    -0.09624    -1.37434
H     -2.74831    -0.78979    -3.10442
H     -1.79664    -0.41517    -0.45709
H     -1.72709    -1.97048    -2.25674
H     -3.34057    -1.57958    -1.63261
