 48
-926.4780368099052
C      0.20337    -1.27458     2.25003
O     -0.57817    -1.98365     1.29443
H     -0.24293    -1.34207     3.24470
H     -1.35325    -1.43459     1.08010
H      1.19375    -1.72785     2.29034
H      0.31694    -0.22232     1.97849
C     -0.40893     3.21341     2.55779
O      0.04174     3.17843     1.21410
H      0.33969     3.66282     3.21196
H      0.89770     2.69514     1.20875
H     -1.31545     3.81384     2.60652
H     -0.63109     2.20612     2.92067
C     -2.30273    -3.21953    -1.49613
O     -2.00606    -1.89383    -1.88484
H     -3.37819    -3.37324    -1.37296
H     -2.17472    -1.33324    -1.11843
H     -1.95654    -3.89249    -2.28056
H     -1.80226    -3.49467    -0.56457
C      3.55945    -0.02708    -1.66197
O      2.39569     0.13300    -0.87510
H      4.30244    -0.64430    -1.15151
H      1.98864    -0.76095    -0.78061
H      3.32404    -0.49322    -2.61934
H      3.99475     0.95278    -1.85874
C     -3.92693    -0.37489     0.77541
O     -2.56192    -0.37066     0.40407
H     -4.10695     0.33557     1.58136
H     -2.29548     0.56254     0.18130
H     -4.55368    -0.11551    -0.07884
H     -4.18909    -1.37353     1.11844
C      3.54128     2.45298     1.22372
O      2.29825     1.77869     1.17419
H      4.34945     1.75872     1.46020
H      2.34899     1.14062     0.42766
H      3.76904     2.94029     0.27305
H      3.50342     3.21282     2.00372
C     -1.11217     1.76103    -1.63094
O     -1.73496     1.96464    -0.36066
H     -1.13283     2.68167    -2.21372
H     -1.11219     2.49805     0.18329
H     -0.08205     1.42163    -1.52261
H     -1.67728     0.99720    -2.16444
C      1.05648    -2.97743    -1.79391
O      1.31401    -2.23456    -0.61031
H      1.99094    -3.08002    -2.34450
H      0.54056    -2.28770    -0.01290
H      0.70021    -3.98025    -1.55131
H      0.31884    -2.47666    -2.41656
