 24
-463.2234751598951
C      2.31746    -0.06169    -1.24933
O      1.40677     1.02702    -1.10466
H      1.80651    -1.01280    -1.10575
H      1.08648     1.03332    -0.19662
H      2.72540    -0.01517    -2.25761
H      3.14030     0.01273    -0.53476
C     -1.26125     1.87588     1.76938
O     -0.74031     0.81648     0.97777
H     -1.65103     2.67389     1.13645
H     -1.18707     0.83041     0.10926
H     -2.06057     1.51252     2.41708
H     -0.45807     2.27332     2.38650
C     -1.74484    -0.71072    -1.89249
O     -1.41618     0.65433    -1.64050
H     -1.68829    -0.93506    -2.95847
H     -0.49842     0.80437    -1.91080
H     -1.08141    -1.38399    -1.34629
H     -2.76736    -0.86653    -1.55492
C      0.78051    -2.24876     2.33255
O      0.47641    -1.77777     1.03073
H      1.28936    -3.20719     2.23237
H      0.02437    -0.92833     1.11325
H      1.44296    -1.55936     2.86444
H     -0.12268    -2.39691     2.93136
