 54
-1042.2875424300423
C     -4.41410     0.51773     1.22031
O     -3.13470     0.45998     0.62350
H     -4.57149     1.50665     1.65498
H     -2.80720    -0.44383     0.76370
H     -5.20018     0.34014     0.47964
H     -4.51845    -0.22560     2.01425
C      1.18781     2.80397    -4.14203
O      1.74160     2.36350    -2.91229
H      1.96935     2.93676    -4.89117
H      2.01059     1.42399    -3.02762
H      0.45463     2.08878    -4.52076
H      0.69397     3.76130    -3.98480
C     -0.66681    -1.42438    -1.36994
O      0.48106    -0.67780    -0.95297
H     -0.61774    -1.59333    -2.44686
H      0.20938     0.19788    -0.64149
H     -0.67799    -2.38837    -0.86733
H     -1.59285    -0.90290    -1.13517
C      3.47701    -0.87007    -2.82861
O      2.20704    -0.25662    -2.96535
H      3.74926    -0.99119    -1.77783
H      1.62535    -0.55277    -2.23449
H      3.48707    -1.85040    -3.30801
H      4.22459    -0.24017    -3.30984
C     -3.37614    -2.95487     1.83197
O     -2.46050    -2.08555     1.19458
H     -4.35066    -2.84687     1.35805
H     -1.57305    -2.23882     1.59676
H     -3.05661    -3.99466     1.73913
H     -3.47060    -2.70968     2.89263
C      1.00693    -2.98876     1.54787
O     -0.07374    -2.40440     2.24883
H      0.69189    -3.96125     1.16881
H      0.24698    -1.54449     2.61136
H      1.31569    -2.36227     0.71236
H      1.86091    -3.13966     2.20950
C     -1.12133     2.48663    -1.15071
O      0.23153     2.26852    -0.75400
H     -1.41244     1.80271    -1.95069
H      0.79412     2.41266    -1.54939
H     -1.77267     2.32080    -0.29984
H     -1.24806     3.50820    -1.50663
C      2.88147     0.98240     0.58141
O      1.83637     1.60688     1.31933
H      2.97386     1.41270    -0.41489
H      1.22545     2.00853     0.67852
H      3.82088     1.11423     1.11542
H      2.68454    -0.08459     0.47263
C     -0.53957     0.70346     3.46888
O      0.63006     0.00101     3.06091
H     -0.28690     1.70183     3.82681
H      1.12337     0.58835     2.44832
H     -1.25586     0.79363     2.65048
H     -1.00335     0.15475     4.28675
