 24
-463.2225875908015
C      2.69009     0.89049    -1.22717
O      1.36108     0.51392    -0.89064
H      3.19135     1.36891    -0.38228
H      1.38600    -0.20092    -0.23733
H      3.27496     0.02697    -1.55191
H      2.62980     1.59952    -2.05001
C     -0.57110     1.94288     1.77205
O     -0.62728     2.25029     0.38751
H     -1.51347     2.25538     2.22353
H      0.14985     1.86050    -0.02783
H     -0.44354     0.87093     1.94188
H      0.24301     2.47736     2.26890
C     -2.69041    -0.17209    -0.64198
O     -1.45441    -0.77671    -1.01934
H     -3.35918    -0.97278    -0.33273
H     -0.86355    -0.09418    -1.35363
H     -2.54059     0.52389     0.18069
H     -3.14018     0.35640    -1.48517
C      0.97550    -2.93326     0.76574
O      0.53639    -1.58585     0.87454
H      1.94494    -3.00595     1.25588
H     -0.30590    -1.49710     0.40372
H      0.27910    -3.61621     1.25738
H      1.08191    -3.22806    -0.28107
