 36
-694.8447450121471
C      0.63380     0.99991     2.78123
O      0.17302     1.04960     1.43989
H      0.30514     0.08383     3.27723
H     -0.76526     0.75904     1.42125
H      1.72174     1.02581     2.78349
H      0.26440     1.85626     3.34850
C      2.48707     0.28011    -1.00615
O      1.19055    -0.19649    -0.69023
H      2.47526     1.35708    -1.18746
H      0.88339     0.26796     0.12099
H      3.18595     0.06336    -0.19715
H      2.83040    -0.21957    -1.91210
C      2.88345    -2.09130     1.86253
O      3.61195    -0.90764     2.17315
H      2.25915    -2.40937     2.70168
H      4.25901    -1.11206     2.84850
H      2.23507    -1.85571     1.02547
H      3.54304    -2.91233     1.57251
C     -0.90038    -1.46720    -3.08783
O     -0.70988    -0.16144    -2.58048
H     -1.31116    -2.12916    -2.32100
H      0.02111    -0.18684    -1.92654
H     -1.59859    -1.42333    -3.92131
H      0.03874    -1.89484    -3.44517
C     -2.14594    -1.33014     0.71033
O     -2.27860     0.05344     1.00059
H     -1.70956    -1.82715     1.57639
H     -2.60574     0.48016     0.17903
H     -3.12027    -1.77821     0.51284
H     -1.49850    -1.49521    -0.15216
C     -2.23181     2.50322    -1.26368
O     -2.72211     1.17259    -1.40055
H     -1.44172     2.55032    -0.50951
H     -2.07309     0.68612    -1.95100
H     -1.83254     2.87392    -2.20912
H     -3.05458     3.14389    -0.95358
