 60
-1158.0933308584843
C      2.97769     3.46787     2.51206
O      2.62181     2.11528     2.29716
H      3.57486     3.86487     1.68643
H      2.17054     2.05926     1.43808
H      2.09394     4.10289     2.63110
H      3.56857     3.52767     3.42528
C      1.51239     1.05288    -1.06532
O      1.14427     1.95789    -0.03633
H      0.74249     1.00722    -1.83309
H      0.33659     1.62208     0.38127
H      2.43847     1.39869    -1.51830
H      1.67911     0.04819    -0.68276
C      4.53326    -1.65718    -1.16256
O      3.43137    -2.11217    -1.92226
H      5.38372    -1.54760    -1.83225
H      2.70661    -2.33836    -1.32977
H      4.33742    -0.68133    -0.70713
H      4.80980    -2.35995    -0.37056
C     -2.79620    -1.38273     0.19002
O     -2.85025     0.04178     0.09669
H     -3.20704    -1.81320    -0.72213
H     -2.13806     0.37583     0.68461
H     -1.76911    -1.72697     0.30670
H     -3.38304    -1.72510     1.04169
C      2.19210    -1.08228     1.92884
O      0.82463    -1.37736     1.65577
H      2.77591    -2.00174     1.99071
H      0.80217    -1.88779     0.82286
H      2.61841    -0.44127     1.15828
H      2.26082    -0.56158     2.88090
C      0.40954    -4.05530    -0.60802
O      0.80654    -2.69234    -0.65849
H      0.73739    -4.48047     0.33927
H      0.35136    -2.27741    -1.43179
H     -0.67585    -4.14323    -0.67589
H      0.86509    -4.61449    -1.42583
C     -0.79489     1.49121     2.77437
O     -0.75037     0.71166     1.58473
H      0.09916     1.31766     3.37011
H     -0.18803    -0.08706     1.74304
H     -0.83365     2.54576     2.50536
H     -1.68807     1.24691     3.34968
C      0.56522    -1.42303    -3.88468
O     -0.28523    -1.55130    -2.75025
H      0.99229    -0.42020    -3.94156
H     -0.84096    -0.74499    -2.68681
H      1.38027    -2.13974    -3.79768
H      0.01336    -1.62435    -4.80407
C     -1.65374     2.01975    -2.47567
O     -1.82444     0.61534    -2.33678
H     -1.03179     2.41234    -1.67067
H     -2.32969     0.46602    -1.51353
H     -1.16674     2.21532    -3.43052
H     -2.61683     2.53057    -2.46720
C     -5.31336     2.22385     2.08315
O     -4.46724     1.11189     2.31538
H     -6.23335     1.93275     1.56839
H     -4.16962     0.77393     1.46552
H     -5.57922     2.64695     3.05085
H     -4.81322     3.00014     1.49529
