 36
-694.8488886794686
C     -1.39576     2.39385    -1.72782
O     -0.40992     2.37598    -0.70250
H     -0.94979     2.86348    -2.60216
H     -0.74155     1.88377     0.05947
H     -1.72081     1.38793    -1.98632
H     -2.25958     2.98844    -1.42201
C      1.53801    -0.08344    -1.98384
O      1.87437     0.97718    -1.08883
H      1.98535     0.10732    -2.95999
H      1.11674     1.59344    -1.06872
H      1.93731    -1.02192    -1.60499
H      0.45914    -0.18063    -2.09148
C      0.25623    -3.20020     0.08906
O     -0.08339    -2.92699    -1.25655
H     -0.62388    -3.17456     0.73871
H     -0.72100    -2.20251    -1.23149
H      0.69171    -4.19814     0.14531
H      0.98731    -2.48602     0.47416
C      2.84225     0.77986     2.20403
O      1.97944     0.02241     1.36808
H      3.88475     0.59925     1.94241
H      2.12206     0.33096     0.43957
H      2.63900     1.84973     2.11785
H      2.68479     0.47122     3.23587
C     -3.18862    -0.78809    -0.53072
O     -1.78867    -0.77230    -0.72667
H     -3.58852     0.22387    -0.42614
H     -1.36916    -0.42317     0.07999
H     -3.64866    -1.25787    -1.39670
H     -3.45522    -1.36022     0.36080
C     -1.06220     0.64736     2.76085
O     -0.60345     0.35337     1.45226
H     -0.65270     1.59709     3.11042
H      0.37348     0.17832     1.49310
H     -2.14789     0.71491     2.74080
H     -0.76938    -0.13998     3.45690
