 36
-694.8451025828361
C      1.87555     2.84913    -1.35073
O      2.88331     1.94557    -1.80068
H      2.22106     3.88387    -1.39312
H      3.06500     2.12777    -2.72239
H      0.96285     2.75552    -1.94603
H      1.63142     2.59044    -0.32674
C      0.08592    -0.31021    -2.01006
O      0.00335    -1.54378    -1.30650
H      1.10346     0.07685    -2.01534
H      0.58017    -1.45089    -0.52041
H     -0.23164    -0.48118    -3.03855
H     -0.56485     0.44825    -1.56689
C      2.94642    -0.75104     0.48596
O      1.54936    -0.83110     0.73056
H      3.49284    -0.63789     1.42451
H      1.20172     0.05998     0.92706
H      3.26299    -1.68280     0.01807
H      3.18635     0.08171    -0.17584
C      0.13838     2.30957     2.25416
O      0.04282     1.46855     1.11913
H     -0.04310     1.75820     3.17976
H     -0.76212     0.91586     1.22633
H      1.14432     2.72864     2.29586
H     -0.57950     3.13096     2.19525
C     -3.41099    -1.49929    -1.51168
O     -2.51692    -1.89848    -0.48885
H     -3.72827    -2.36215    -2.09896
H     -1.61744    -1.94889    -0.87756
H     -4.29055    -1.04554    -1.05592
H     -2.94780    -0.77243    -2.18261
C     -1.44055    -1.21973     2.53933
O     -1.87408    -0.31159     1.53170
H     -0.43146    -1.58033     2.33250
H     -2.19677    -0.85900     0.77908
H     -1.44826    -0.70116     3.49756
H     -2.11326    -2.07521     2.60623
