 36
-694.8450544780023
C     -0.71242     3.26737     0.55262
O      0.16523     2.39596    -0.13500
H     -1.43794     3.66899    -0.15364
H      0.77402     2.01065     0.53237
H     -1.24968     2.74095     1.34547
H     -0.16569     4.09901     1.00207
C      3.07696     1.74282     1.78603
O      1.73406     1.29384     1.70739
H      3.37406     1.88589     2.82705
H      1.74384     0.31397     1.62997
H      3.75898     1.02959     1.31964
H      3.16522     2.69791     1.26632
C      1.78955    -1.47293    -0.21931
O      1.57131    -1.33211     1.17907
H      1.86601    -2.52735    -0.48727
H      0.63544    -1.58565     1.33163
H      0.98966    -1.01384    -0.80184
H      2.73558    -0.99579    -0.47436
C     -1.81515    -2.43235    -2.08029
O     -2.33466    -2.70578    -0.77592
H     -1.46655    -1.40507    -2.07943
H     -2.68221    -3.59736    -0.75578
H     -0.98228    -3.09872    -2.31219
H     -2.59449    -2.54912    -2.83444
C     -1.57944    -0.38465     1.61424
O     -1.05400    -1.68323     1.34573
H     -2.56101    -0.45861     2.08311
H     -1.52088    -2.02657     0.56151
H     -0.90705     0.12930     2.29892
H     -1.65941     0.20599     0.70143
C     -0.33244     0.92354    -3.24107
O     -0.81925     0.64715    -1.94571
H     -0.91104     1.71436    -3.72735
H     -0.45694     1.31389    -1.33546
H      0.71993     1.22213    -3.22515
H     -0.41560     0.01792    -3.84567
