 36
-694.8479250025747
C     -2.21506     2.94190    -1.24861
O     -1.43423     2.19766    -0.32756
H     -2.26682     3.97057    -0.89638
H     -1.22732     1.34127    -0.74304
H     -1.76549     2.93506    -2.24406
H     -3.23133     2.54309    -1.31900
C      3.76426    -1.61447     0.50915
O      2.41214    -1.97092     0.29210
H      4.01529    -1.66473     1.57004
H      1.85237    -1.35087     0.80428
H      4.39680    -2.31823    -0.02753
H      3.97387    -0.60406     0.14897
C      1.28889     1.17897     1.24439
O      0.74047    -0.13497     1.32279
H      1.79745     1.33681     0.29217
H     -0.05343    -0.15934     0.77160
H      0.52125     1.93994     1.35866
H      2.01565     1.27859     2.04757
C      1.98288    -1.20714    -2.96594
O      1.10275    -1.83188    -2.04338
H      2.24507    -0.19711    -2.63928
H      1.62362    -2.03323    -1.23544
H      2.90088    -1.78468    -3.07856
H      1.48847    -1.14886    -3.93177
C     -2.05681     0.91846     3.18005
O     -2.68259     0.83488     1.91211
H     -2.55971     0.21707     3.84439
H     -2.29584     1.49123     1.31850
H     -1.00266     0.64221     3.12138
H     -2.13929     1.92065     3.61296
C     -1.97056    -1.21258    -0.80185
O     -0.88969    -0.33460    -1.11759
H     -1.62450    -2.04591    -0.18928
H     -0.17810    -0.87328    -1.53777
H     -2.71850    -0.65379    -0.24530
H     -2.41699    -1.60253    -1.71574
