 24
-463.228966718042
C      2.56144     0.68821    -0.26671
O      1.49454     0.53145     0.64949
H      3.41212     0.06549     0.01374
H      1.23109    -0.41371     0.62787
H      2.25815     0.42779    -1.28413
H      2.88188     1.72809    -0.25189
C     -0.55249     2.97288    -0.74601
O     -0.79014     1.79005    -0.00395
H     -0.07388     2.74987    -1.70273
H      0.07593     1.45608     0.31123
H     -1.50746     3.45799    -0.93489
H      0.08487     3.66355    -0.18870
C     -2.84075    -0.88531     0.74477
O     -1.86866    -0.69105    -0.27209
H     -3.18603    -1.91616     0.69244
H     -1.61745     0.25302    -0.26690
H     -2.41897    -0.70041     1.73588
H     -3.69482    -0.22309     0.59782
C      0.93233    -2.74911    -0.74593
O      0.46485    -1.91459     0.29852
H      1.99579    -2.92650    -0.59635
H     -0.44297    -1.62622     0.06517
H      0.41679    -3.71056    -0.73696
H      0.78410    -2.27800    -1.72041
