 36
-694.8514345239754
C      2.73744     3.24171    -0.66705
O      3.24382     1.97130    -1.03382
H      3.24299     3.98620    -1.27981
H      2.81795     1.30922    -0.47735
H      1.66231     3.31380    -0.84721
H      2.93273     3.47108     0.38397
C      0.23004     1.53378    -2.68287
O     -0.26972     1.36748    -1.36264
H     -0.07544     2.51411    -3.04359
H      0.44242     0.99414    -0.81241
H      1.31636     1.47065    -2.71495
H     -0.19662     0.77456    -3.34330
C      1.41827    -1.34087    -0.62693
O      1.51588    -0.10823     0.08508
H      1.23079    -1.13160    -1.67884
H      1.20130    -0.28936     1.00169
H      2.35051    -1.89939    -0.53787
H      0.59989    -1.94184    -0.23503
C      1.02623    -1.95365     3.09554
O      0.48990    -0.86384     2.36820
H      1.09785    -2.85059     2.47547
H     -0.43384    -1.10059     2.12550
H      2.02169    -1.68636     3.44304
H      0.40887    -2.18329     3.96541
C     -3.51939     0.61569    -0.76174
O     -2.36244    -0.20630    -0.86212
H     -4.09668     0.57154    -1.68682
H     -1.62127     0.37657    -1.14230
H     -4.14337     0.26079     0.05917
H     -3.23919     1.65121    -0.56459
C     -2.28842    -2.86022     1.25436
O     -1.87981    -1.51289     1.38909
H     -1.62080    -3.40203     0.57868
H     -2.06549    -1.05054     0.53872
H     -2.26291    -3.33692     2.23321
H     -3.30426    -2.92784     0.86325
