 30
-579.031948124702
C      2.96461     1.09997    -0.13644
O      1.84028     0.82668     0.67388
H      2.82458     0.72514    -1.15375
H      1.08033     1.30414     0.28450
H      3.16491     2.17205    -0.18466
H      3.83107     0.60714     0.30016
C     -2.29331    -0.67891     1.54117
O     -3.03140    -1.12750     0.39326
H     -1.82951     0.28843     1.34345
H     -3.87389    -0.67516     0.38320
H     -2.93732    -0.60563     2.41854
H     -1.51682    -1.41459     1.72581
C      1.90320    -2.42531     2.12413
O      0.98417    -1.75011     1.29283
H      2.92667    -2.36014     1.74102
H      1.31894    -0.85412     1.13116
H      1.89314    -2.02776     3.14362
H      1.62149    -3.47733     2.16193
C     -0.13903     3.05933    -1.43324
O     -0.25559     1.97934    -0.52796
H      0.29275     3.90805    -0.90625
H     -0.73953     1.25853    -0.98741
H      0.50696     2.80204    -2.27762
H     -1.11646     3.35211    -1.82067
C     -0.41045    -1.06965    -2.05961
O     -1.41275    -0.14329    -1.64020
H      0.21495    -0.57412    -2.80170
H     -2.00614    -0.61349    -1.02804
H      0.20982    -1.38796    -1.22044
H     -0.86802    -1.94227    -2.52455
