 48
-926.4794275504145
C     -1.52809    -3.70930     1.68284
O     -1.07175    -2.46155     1.19040
H     -1.13094    -3.85498     2.68563
H     -1.55255    -2.28336     0.34952
H     -2.61661    -3.73231     1.73936
H     -1.19689    -4.53486     1.04818
C     -1.17058    -2.68109    -2.10244
O     -2.11596    -2.08833    -1.21900
H     -0.15792    -2.61312    -1.69550
H     -2.23336    -1.16041    -1.52316
H     -1.42723    -3.73143    -2.23417
H     -1.18732    -2.18882    -3.07400
C     -3.13137     1.39052    -1.74956
O     -2.15738     0.40842    -2.05085
H     -2.97823     1.80349    -0.74942
H     -1.29022     0.86537    -2.11215
H     -3.09357     2.20830    -2.47050
H     -4.11752     0.93155    -1.79328
C      2.20528    -3.14176     0.73705
O      1.46855    -1.93721     0.71300
H      1.85826    -3.82229    -0.04442
H      0.53285    -2.15327     0.92788
H      3.25548    -2.91635     0.55200
H      2.11985    -3.64754     1.70110
C      3.33670     0.74977     1.19755
O      2.40207     0.15996     2.08637
H      2.83518     1.24558     0.36398
H      2.07472    -0.64886     1.64412
H      3.91365     1.49327     1.74355
H      4.02287     0.00293     0.79273
C      1.25501     0.66940    -2.15847
O      0.20224     1.62404    -2.12816
H      1.18302     0.10289    -3.08519
H      0.46099     2.32543    -1.49116
H      2.22634     1.16361    -2.14384
H      1.18883    -0.02153    -1.31289
C      0.07482     4.54868    -0.17580
O      0.88359     3.38631    -0.23610
H      0.25785     5.15062    -1.06357
H      0.77367     2.91828     0.62114
H     -0.98672     4.29092    -0.13925
H      0.31482     5.14588     0.70432
C     -0.75164     1.11971     1.60709
O      0.36773     1.92495     1.96845
H     -0.73757     0.85213     0.54642
H      1.10357     1.31817     2.19387
H     -0.79590     0.20189     2.19218
H     -1.65211     1.69998     1.80894
