 60
-1158.0850237159686
C      4.70395     1.59281    -1.43432
O      3.93055     0.75736    -0.58742
H      4.11703     1.95655    -2.27990
H      3.18429     0.41125    -1.10839
H      5.05637     2.45648    -0.87027
H      5.57399     1.05531    -1.81617
C      3.79907     2.86495     2.13177
O      2.75897     2.33851     1.33161
H      4.47089     2.07984     2.49202
H      3.17106     1.74511     0.67739
H      4.39508     3.59997     1.58269
H      3.36217     3.36250     2.99763
C      0.79922    -3.07372    -3.00100
O      0.95533    -1.88380    -3.75016
H      1.72744    -3.36637    -2.50176
H      1.28591    -1.21063    -3.14735
H      0.01577    -2.97692    -2.24621
H      0.51709    -3.87056    -3.68781
C      0.79873     1.33020    -1.74322
O      1.49794     0.08817    -1.63956
H      1.26098     1.91418    -2.53687
H      1.15266    -0.34979    -0.83383
H     -0.24874     1.16625    -1.98736
H      0.85530     1.89679    -0.81560
C      1.53371    -0.92695     1.68910
O      0.49922    -0.77340     0.71442
H      1.73868     0.01985     2.18501
H     -0.10013    -0.04601     1.01074
H      1.23429    -1.66825     2.42925
H      2.43923    -1.26577     1.18868
C     -1.97581    -0.51460     4.22716
O     -0.79012    -1.30041     4.31144
H     -2.12927     0.08105     5.12887
H     -0.82589    -1.82164     5.11339
H     -1.87291     0.15216     3.37621
H     -2.85423    -1.14630     4.06970
C     -0.72951     2.49544     1.56035
O     -1.20402     1.20625     1.19410
H      0.32015     2.44285     1.84429
H     -1.79609     1.30878     0.41510
H     -0.82648     3.19354     0.72711
H     -1.30319     2.87554     2.40732
C     -4.01149     2.04839    -0.80518
O     -2.75327     1.40466    -0.94820
H     -3.99178     2.69005     0.07632
H     -2.91941     0.50645    -1.32086
H     -4.21872     2.66417    -1.68133
H     -4.81186     1.31720    -0.68674
C     -2.19764    -2.51201     1.30297
O     -1.62793    -2.50868    -0.00579
H     -1.42995    -2.52552     2.07436
H     -0.76997    -2.06500     0.05836
H     -2.81726    -1.62700     1.45913
H     -2.82376    -3.39752     1.39614
C     -2.63835    -1.39701    -3.05551
O     -3.12360    -1.10145    -1.75109
H     -2.66994    -2.46994    -3.24312
H     -2.64510    -1.68350    -1.12482
H     -3.27983    -0.89961    -3.77935
H     -1.61149    -1.05235    -3.19298
