 60
-1158.1000108889932
C      3.39941     1.19294    -0.60538
O      2.83680     2.47588    -0.42838
H      3.25985     0.82278    -1.62275
H      1.92422     2.36474    -0.13504
H      4.47211     1.26625    -0.42401
H      2.99509     0.44524     0.08070
C      1.28129    -2.05083    -3.86630
O      1.83920    -1.43501    -2.72253
H      1.83775    -2.96133    -4.08393
H      1.29994    -0.64104    -2.51645
H      0.23208    -2.31235    -3.70498
H      1.34101    -1.38859    -4.73292
C      0.21166     1.71148     1.72163
O      0.15587     2.09109     0.34470
H     -0.67769     1.14857     1.99575
H     -0.68416     2.59936     0.21680
H      1.08491     1.09040     1.89366
H      0.27813     2.59821     2.35042
C      0.56522     1.80488    -3.00973
O      0.38697     0.70878    -2.11513
H     -0.29849     2.47016    -2.98092
H      0.25000     1.06549    -1.21551
H      1.46523     2.36891    -2.77122
H      0.65300     1.40666    -4.02081
C      4.16076    -2.50032    -0.47166
O      2.74381    -2.54588    -0.47063
H      4.57316    -3.30159    -1.08764
H      2.43840    -2.19293    -1.33292
H      4.52379    -1.54295    -0.85074
H      4.51872    -2.62872     0.55008
C     -2.46040    -0.85230     3.43569
O     -2.55198    -1.99875     2.62178
H     -2.85404     0.04015     2.94347
H     -2.08580    -1.80741     1.79872
H     -3.04314    -1.02723     4.33852
H     -1.42755    -0.65141     3.73401
C     -4.40845    -0.03967     0.31346
O     -3.18626     0.67883     0.31061
H     -5.21397     0.66262     0.51722
H     -2.44873     0.04080     0.27931
H     -4.59058    -0.50393    -0.65818
H     -4.41140    -0.81303     1.08015
C     -1.14993    -1.90896    -0.84909
O     -1.15574    -1.09233     0.32166
H     -0.17661    -2.37224    -0.98731
H     -0.25265    -1.08941     0.71816
H     -1.91223    -2.68334    -0.75676
H     -1.37185    -1.29506    -1.72012
C      1.19146    -1.99302     2.68528
O      1.24126    -1.36876     1.40921
H      1.24662    -1.22361     3.45618
H      1.85718    -1.85956     0.82128
H      0.26355    -2.55223     2.81763
H      2.03091    -2.67393     2.82140
C     -2.77422     3.95382     1.19600
O     -2.23042     3.14693     0.16369
H     -3.03032     3.35160     2.07067
H     -2.71576     2.29587     0.16608
H     -2.03777     4.70106     1.48738
H     -3.67212     4.46586     0.84776
