 48
-926.4801102054113
C      0.15299    -2.96573     2.49055
O      0.64243    -2.76561     1.17456
H     -0.87584    -2.61444     2.58139
H     -0.10965    -2.94298     0.56634
H      0.18714    -4.02350     2.75116
H      0.78134    -2.41805     3.19400
C      1.64571     2.19947    -2.06645
O      0.23233     2.29468    -2.12397
H      2.03185     2.02229    -3.06867
H     -0.04118     2.73134    -1.28936
H      2.08277     3.12200    -1.68840
H      1.96569     1.38302    -1.41835
C     -1.87842     0.16527     0.57129
O     -2.52289    -0.62158    -0.42611
H     -2.17345     1.21187     0.51247
H     -2.19055    -0.29835    -1.29226
H     -2.17863    -0.21727     1.54875
H     -0.79110     0.10826     0.49869
C     -0.15372    -0.97144    -2.63167
O     -1.13019     0.05847    -2.60564
H      0.53429    -0.90633    -1.78579
H     -0.65255     0.90894    -2.49427
H     -0.65543    -1.93625    -2.59253
H      0.42187    -0.93281    -3.55857
C     -2.57443    -4.02816     0.26358
O     -1.59261    -3.12702    -0.21562
H     -3.37539    -4.15462    -0.46557
H     -2.02450    -2.24776    -0.31911
H     -2.10803    -4.99622     0.43724
H     -3.01034    -3.67169     1.20042
C      0.90020     1.50311     3.05831
O      1.39314     1.79385     1.76274
H      0.65294     2.43906     3.55800
H      1.66446     0.94936     1.34752
H     -0.00199     0.88720     3.00973
H      1.64795     0.97912     3.65525
C      0.23602     4.72360     0.41777
O     -0.14293     3.36858     0.26444
H     -0.08228     5.11101     1.38842
H      0.42844     2.83803     0.86063
H      1.31937     4.84149     0.33581
H     -0.24106     5.31529    -0.36234
C      3.01461    -0.95595    -0.21456
O      1.96739    -0.54518     0.64672
H      3.46373    -1.88659     0.13035
H      1.46514    -1.35675     0.88901
H      2.63676    -1.10919    -1.22716
H      3.78246    -0.18360    -0.23813
