 36
-694.8489649710153
C      0.54820     3.20031    -1.18559
O     -0.60387     2.48527    -1.63501
H      1.21651     3.43925    -2.01566
H     -1.07431     3.02771    -2.26812
H      0.26777     4.12409    -0.67376
H      1.08192     2.56769    -0.48453
C      2.61317    -0.11857     1.67594
O      1.67813     0.46680     0.78522
H      2.16139    -0.20378     2.66655
H      1.73945    -0.00593    -0.07813
H      2.90112    -1.11518     1.33886
H      3.50886     0.49963     1.75640
C      1.04800    -0.42571    -2.58163
O      1.65891    -0.99066    -1.42948
H      0.77634    -1.20701    -3.29238
H      1.05317    -1.69306    -1.10041
H      0.15386     0.14355    -2.32554
H      1.76462     0.23940    -3.06023
C      0.39705    -2.99567     1.00370
O     -0.11764    -2.57483    -0.25049
H      0.55968    -2.14506     1.66674
H     -0.96463    -2.10794    -0.06792
H     -0.28494    -3.69310     1.49164
H      1.34795    -3.50280     0.83765
C     -2.82356    -0.40189    -0.56241
O     -2.26071    -1.16874     0.48997
H     -3.78204     0.02119    -0.25602
H     -1.83905    -0.54013     1.11117
H     -2.15990     0.40908    -0.86693
H     -2.99726    -1.05655    -1.41603
C     -1.26336     1.92632     1.85256
O     -0.77780     0.59520     1.85499
H     -2.27467     1.92879     2.25866
H      0.11679     0.58904     1.45017
H     -0.64563     2.57013     2.48250
H     -1.28848     2.33748     0.84242
