 60
-1158.0955725657843
C     -1.91961    -4.34440    -0.16906
O     -0.70947    -3.77180     0.29499
H     -2.55002    -3.60625    -0.66909
H     -0.90767    -3.20480     1.04863
H     -1.66941    -5.12763    -0.88413
H     -2.49443    -4.79443     0.64535
C     -1.01547     2.75303    -2.20432
O     -0.30233     1.68993    -1.59787
H     -1.30853     2.48390    -3.21840
H     -0.88444     0.87578    -1.65864
H     -1.90950     2.98072    -1.62562
H     -0.38270     3.63863    -2.24311
C      5.48564     0.08761    -1.61945
O      4.38301     0.81848    -1.11966
H      5.38311    -0.98306    -1.41933
H      3.64963     0.73031    -1.74047
H      5.61081     0.22860    -2.69728
H      6.38472     0.44648    -1.11987
C      2.06209     1.51302    -3.99945
O      2.05091     0.77170    -2.79276
H      2.78822     1.06288    -4.67322
H      1.28735     1.08425    -2.28330
H      1.08345     1.49929    -4.48490
H      2.34498     2.55286    -3.81953
C      1.87014     2.79083     0.77009
O      0.54435     2.27135     0.85970
H      2.56286     2.05938     0.35526
H      0.24380     2.08565    -0.05229
H      1.88253     3.68553     0.14874
H      2.18677     3.06018     1.77512
C     -3.95313    -0.23302     0.82874
O     -3.07267    -1.25069     0.36596
H     -4.40523     0.25392    -0.03473
H     -2.44370    -1.44015     1.09032
H     -4.75376    -0.66662     1.43054
H     -3.42113     0.51300     1.42023
C     -0.99131    -1.56538    -2.33273
O     -1.69530    -0.45781    -1.77025
H     -0.48032    -2.14695    -1.56832
H     -2.24173    -0.79293    -1.01952
H     -1.68468    -2.21320    -2.86843
H     -0.25835    -1.19230    -3.04818
C     -1.74198    -1.45452     3.58832
O     -1.21944    -1.67673     2.28501
H     -0.98783    -1.67245     4.34442
H     -0.40253    -1.12726     2.18138
H     -2.07129    -0.42292     3.69294
H     -2.58633    -2.12356     3.74330
C      1.55176    -0.90759     0.63030
O      0.98323    -0.33720     1.81404
H      1.35692    -1.97969     0.63599
H      0.87663     0.61440     1.65199
H      1.10843    -0.49201    -0.27403
H      2.62858    -0.74584     0.59443
C     -0.66752     1.96880     3.99014
O     -1.41421     1.82235     2.79960
H     -1.31556     1.71987     4.83077
H     -0.84313     2.08502     2.06909
H      0.19919     1.30245     4.01877
H     -0.31844     2.99628     4.12767
