 42
-810.665335066398
C     -3.49961    -1.71432    -1.12120
O     -2.25238    -1.05086    -1.17124
H     -3.95625    -1.63219    -0.13125
H     -1.66273    -1.50086    -0.53155
H     -4.16740    -1.26329    -1.85360
H     -3.38735    -2.77299    -1.36428
C      2.09531    -1.19286     2.48040
O      1.72537    -1.20107     1.11288
H      1.58357    -0.39950     3.02850
H      1.89032    -0.30596     0.75770
H      1.82540    -2.15029     2.92425
H      3.17162    -1.05301     2.59196
C     -0.66754    -3.59474     0.88288
O     -0.69295    -2.20434     0.62211
H     -0.42617    -3.78949     1.92997
H      0.20718    -1.85177     0.78187
H     -1.65118    -4.01470     0.67497
H      0.06812    -4.10038     0.25455
C      1.41792    -0.67793    -2.32323
O      1.88782     0.65432    -2.37642
H      1.44485    -1.09060    -3.33194
H      1.92313     0.98377    -1.47435
H      2.04321    -1.30707    -1.68447
H      0.38924    -0.73132    -1.95912
C     -1.51185     2.16217    -2.15231
O     -2.08630     1.63191    -0.96250
H     -0.65769     1.56890    -2.47918
H     -2.20207     0.66720    -1.08877
H     -2.25269     2.20281    -2.95189
H     -1.17542     3.17765    -1.94710
C      2.95482     2.27373     0.86014
O      1.94285     1.41297     0.37176
H      2.90290     3.24454     0.36774
H      1.05876     1.79959     0.60199
H      2.85690     2.41486     1.93870
H      3.91914     1.81812     0.64696
C     -0.92411     1.38449     2.14483
O     -0.46732     2.18911     1.06261
H     -1.95740     1.62499     2.39272
H     -1.12604     2.07256     0.33476
H     -0.85521     0.31859     1.91579
H     -0.30764     1.60040     3.01734
