 60
-1158.0935960781824
C      3.21937    -1.69047    -4.60234
O      1.92977    -1.57860    -4.03662
H      3.11638    -1.87213    -5.67050
H      2.03820    -1.54051    -3.06975
H      3.79507    -0.77185    -4.45980
H      3.77110    -2.52515    -4.16501
C      0.92951     2.32952    -2.13713
O      0.63692     1.29354    -1.19269
H      1.82553     2.87876    -1.83687
H      1.12720     0.49625    -1.43499
H      1.05802     1.92012    -3.13738
H      0.08843     3.02170    -2.15507
C      1.37696     1.18761     2.54779
O      0.74847    -0.04920     2.85162
H      1.14522     1.93418     3.30687
H     -0.20710     0.14385     3.02096
H      2.45259     1.02629     2.53247
H      1.05991     1.56330     1.57243
C     -2.42074     0.50421     4.54570
O     -1.81334     0.39670     3.26773
H     -3.42123     0.06906     4.53379
H     -2.33754     0.92483     2.62389
H     -1.81603    -0.02999     5.27531
H     -2.50191     1.54775     4.85479
C     -0.18602    -2.41135     4.95349
O      0.63584    -1.38170     5.46584
H      0.41134    -3.22871     4.54214
H      0.99009    -0.91003     4.70779
H     -0.78702    -2.79998     5.77408
H     -0.85586    -2.04851     4.16988
C      3.53148    -1.07052    -0.89983
O      2.21187    -1.25346    -1.39529
H      3.64262    -0.07249    -0.47051
H      1.65804    -1.51067    -0.61592
H      3.75453    -1.80926    -0.13270
H      4.23806    -1.18632    -1.72018
C     -2.83030     3.25739     1.60453
O     -3.05178     1.86346     1.44099
H     -1.81609     3.45227     1.96564
H     -2.75877     1.64228     0.53189
H     -2.96408     3.77970     0.65854
H     -3.54695     3.64344     2.32629
C     -2.43937     1.04675    -2.27423
O     -2.03009     1.37384    -0.94989
H     -3.03833     0.13577    -2.25994
H     -1.05785     1.30417    -0.93430
H     -3.05495     1.85679    -2.66379
H     -1.57814     0.90239    -2.92535
C     -0.44235    -0.07903    -6.04705
O      0.22711     0.35955    -4.88239
H      0.25834    -0.42321    -6.81354
H      0.81142    -0.36154    -4.59494
H     -1.13719    -0.89529    -5.82713
H     -1.00995     0.75678    -6.45424
C     -0.60518    -1.94921     0.47955
O      0.77556    -1.69226     0.72293
H     -1.07271    -2.39200     1.35850
H      0.82772    -1.15097     1.53869
H     -1.14253    -1.03847     0.21598
H     -0.68073    -2.65865    -0.34230
