 48
-926.481548536264
C      0.76669    -3.03530     3.36551
O      1.09605    -2.53547     2.07370
H     -0.30986    -3.17552     3.46183
H      0.35600    -2.78363     1.47711
H      1.26955    -3.98792     3.54180
H      1.09695    -2.31748     4.11712
C     -2.00136     2.39256    -2.19184
O     -0.68586     2.14418    -2.65552
H     -2.17062     3.45843    -2.03132
H     -0.07487     2.67254    -2.10183
H     -2.70417     2.03960    -2.94482
H     -2.20836     1.86407    -1.25709
C     -3.44327    -1.33653    -1.36956
O     -2.28830    -1.13992    -0.57352
H     -3.26064    -2.06818    -2.15954
H     -1.58322    -0.83099    -1.18514
H     -4.25048    -1.69408    -0.73344
H     -3.75602    -0.39935    -1.83509
C      0.93014    -0.42531    -1.39179
O     -0.25914    -0.44904    -2.18231
H      0.81706    -1.04250    -0.50383
H     -0.38826     0.45955    -2.52945
H      1.76123    -0.82341    -1.97133
H      1.17455     0.58531    -1.07136
C     -0.55071    -3.87484    -0.67914
O     -0.93010    -3.17880     0.50090
H     -0.33453    -3.18732    -1.49779
H     -1.52333    -2.45075     0.22315
H      0.33968    -4.46215    -0.45943
H     -1.34618    -4.55442    -0.98642
C     -0.56412     1.66117     1.35824
O      0.81929     1.96523     1.23285
H     -1.14548     2.51103     1.00037
H      1.31987     1.21531     1.63307
H     -0.83577     0.78300     0.76945
H     -0.83426     1.48691     2.40015
C      1.14327     4.82678    -0.69782
O      0.93957     3.45100    -0.96515
H      1.91005     4.96325     0.06622
H      0.98233     2.96892    -0.11326
H      1.47282     5.31553    -1.61205
H      0.21755     5.29738    -0.35539
C      3.42148    -0.22510     1.64107
O      2.12109    -0.11410     2.20133
H      3.70054     0.73423     1.20479
H      1.71640    -1.01093     2.15706
H      4.14760    -0.48025     2.41417
H      3.45231    -0.98759     0.86015
