 36
-694.8546198798008
C     -1.02405     2.47293    -0.96804
O     -1.71294     1.39037    -0.34436
H     -1.08200     2.35419    -2.05072
H     -1.23074     1.18829     0.47510
H     -1.48535     3.42576    -0.69917
H      0.02676     2.48534    -0.67172
C      3.50415     0.61795     1.01348
O      2.30306     1.10334     0.43232
H      3.89004     1.37019     1.69728
H      2.09348     0.53423    -0.34812
H      3.32898    -0.30614     1.57010
H      4.25515     0.42539     0.24793
C      1.74926    -1.91485    -0.94177
O      1.48203    -0.59670    -1.40289
H      2.73703    -1.92820    -0.48249
H      0.54552    -0.56996    -1.70671
H      1.01227    -2.23159    -0.20487
H      1.75561    -2.62234    -1.77198
C     -2.44014    -1.47666     1.40982
O     -1.05914    -1.70973     1.22718
H     -2.95141    -2.43876     1.42925
H     -0.59285    -0.87891     1.38467
H     -2.64931    -0.95699     2.34935
H     -2.86180    -0.88422     0.59380
C     -1.80349    -1.79574    -2.06349
O     -1.07041    -0.58108    -2.08223
H     -2.87129    -1.60457    -2.18932
H     -1.49558     0.06409    -1.48328
H     -1.46851    -2.40780    -2.89859
H     -1.64316    -2.33597    -1.13112
C     -0.06456     1.59219     2.83682
O      0.04673     0.79632     1.67290
H     -0.12272     2.65010     2.57597
H      0.93584     0.95033     1.25457
H     -0.97044     1.30509     3.36655
H      0.79139     1.43588     3.49331
