 54
-1042.29072819011
C     -3.09940    -2.79586    -0.79897
O     -2.00158    -2.17082    -0.15868
H     -2.92447    -2.89125    -1.87226
H     -1.17512    -2.57646    -0.50921
H     -3.29054    -3.78371    -0.37611
H     -3.97880    -2.17062    -0.64626
C      2.02399    -0.98611    -3.28071
O      1.99880    -1.27238    -1.89656
H      1.43958    -0.09537    -3.51565
H      2.14796    -0.43600    -1.40750
H      3.04835    -0.82868    -3.62163
H      1.60558    -1.83062    -3.82800
C     -1.29567     0.06895    -2.36543
O     -0.64916     0.98800    -1.51246
H     -0.66739    -0.81284    -2.50010
H     -1.30210     1.36172    -0.89456
H     -2.25557    -0.26094    -1.96435
H     -1.46668     0.50795    -3.35367
C      2.42701     2.10618    -1.67116
O      2.43666     1.06765    -0.69892
H      2.75196     3.05655    -1.24122
H      1.78068     1.26773    -0.01348
H      3.12674     1.83821    -2.46151
H      1.43394     2.21934    -2.10474
C      1.08464    -3.49534     0.33706
O      0.39911    -3.03472    -0.81480
H      2.09007    -3.83519     0.08332
H      0.98976    -2.37181    -1.24989
H      1.16206    -2.70747     1.08889
H      0.53548    -4.33773     0.75981
C     -0.92737    -1.71056     2.85302
O     -0.64937    -0.82932     1.77867
H     -1.16144    -2.70742     2.48100
H     -1.15985    -1.12482     0.99620
H     -0.05254    -1.77509     3.50113
H     -1.77255    -1.34614     3.43981
C     -3.14628     1.16498     1.16189
O     -2.38651     1.99578     0.29842
H     -3.21559     0.16383     0.73728
H     -1.84298     2.59925     0.83926
H     -2.69267     1.09481     2.15092
H     -4.15802     1.56082     1.26362
C      2.17714     0.62198     2.55013
O      1.07016     1.13077     1.82443
H      2.12089     0.91836     3.59921
H      0.40089     0.40994     1.78003
H      2.19771    -0.46658     2.48091
H      3.09902     1.01116     2.11833
C      0.13042     4.15108     0.51868
O     -0.45136     3.41049     1.58106
H      0.14898     3.57074    -0.40649
H      0.13925     2.66375     1.77348
H     -0.46824     5.04543     0.35585
H      1.15215     4.45208     0.76202
