 60
-1158.0864995311072
C     -1.65348     2.02247     1.91812
O     -0.83080     1.25897     1.04309
H     -2.68078     1.67558     1.81475
H      0.07544     1.64772     1.09054
H     -1.34703     1.88224     2.95637
H     -1.60295     3.07821     1.65885
C      2.38118     1.99430     0.15246
O      1.64822     2.11805     1.37077
H      1.90005     2.62882    -0.59295
H      2.09805     1.59102     2.07150
H      3.40608     2.34058     0.28712
H      2.39342     0.96893    -0.21534
C      1.22903    -0.01785    -2.68185
O      2.09528    -0.76854    -1.86402
H      1.13014    -0.45378    -3.68008
H      1.73149    -1.66894    -1.82681
H      0.22908     0.08814    -2.24706
H      1.64179     0.98421    -2.80219
C     -2.10721    -4.76818    -1.26966
O     -1.52148    -3.53730    -0.88523
H     -1.90731    -4.99187    -2.32085
H     -2.08056    -2.82105    -1.26309
H     -1.68425    -5.56158    -0.65628
H     -3.18596    -4.75225    -1.11593
C      2.38188     0.85221     4.61160
O      2.57019     0.46863     3.25903
H      2.28325    -0.02593     5.25083
H      1.87978    -0.19578     3.05375
H      3.24909     1.42361     4.93326
H      1.48488     1.46712     4.72389
C      1.75139    -4.32831    -1.25770
O      0.99640    -3.22101    -1.70658
H      1.46218    -5.24354    -1.77934
H      0.08133    -3.32970    -1.37066
H      2.80599    -4.14056    -1.45705
H      1.62249    -4.48725    -0.18400
C     -2.52339     2.14316    -1.61250
O     -2.25143     0.82119    -1.16843
H     -2.33095     2.20801    -2.68522
H     -1.68623     0.89677    -0.37998
H     -3.57310     2.38812    -1.43701
H     -1.89574     2.86534    -1.09460
C     -2.13202    -1.49107    -3.38706
O     -2.80124    -1.56558    -2.13571
H     -2.64609    -2.13431    -4.10055
H     -2.70266    -0.67951    -1.72660
H     -2.12724    -0.46910    -3.76971
H     -1.09703    -1.82733    -3.29840
C      0.89778    -1.83948     1.41138
O      0.44243    -0.96215     2.44543
H      0.08336    -2.44621     1.01587
H     -0.17968    -0.33377     2.05479
H      1.36468    -1.30007     0.59024
H      1.63959    -2.50705     1.84900
C      0.19855     5.30608     1.20845
O     -0.79747     5.01985     0.23010
H      0.87396     4.45785     1.25537
H     -1.35885     5.78866     0.13066
H      0.77011     6.19790     0.94316
H     -0.24802     5.45013     2.19725
