 36
-694.8529116988383
C     -3.23590    -0.01917     0.96934
O     -1.92052     0.12161     0.46178
H     -3.51943     0.85991     1.54916
H     -1.29127     0.01082     1.22226
H     -3.91878    -0.13183     0.12994
H     -3.30825    -0.90242     1.60553
C      1.90085     2.98865    -0.62356
O      1.82570     1.63396    -1.03424
H      1.68691     3.66315    -1.45352
H      0.92616     1.48825    -1.38759
H      1.20008     3.19598     0.18962
H      2.91215     3.18764    -0.27461
C     -0.16419    -1.69024     2.84138
O     -0.14791    -0.38154     2.28665
H      0.64025    -1.81067     3.56745
H      0.74895    -0.23586     1.90268
H     -1.11229    -1.83573     3.35676
H     -0.06116    -2.44877     2.06550
C     -0.35377    -2.40004    -1.82168
O     -0.79253    -2.50120    -0.47656
H      0.45295    -3.11876    -1.97112
H     -1.23257    -1.68046    -0.23536
H     -1.15991    -2.63949    -2.51992
H      0.03049    -1.40152    -2.04983
C     -1.58025     2.32081    -2.18017
O     -0.75373     1.26291    -1.73230
H     -1.69675     3.08305    -1.40593
H     -1.20064     0.82739    -0.98461
H     -1.11783     2.77144    -3.05659
H     -2.56996     1.95258    -2.45913
C      2.64089    -1.27112     0.41842
O      2.15806    -0.06912     1.00320
H      1.82464    -1.85147    -0.01396
H      2.10282     0.59372     0.28184
H      3.37293    -1.05492    -0.35981
H      3.12769    -1.86401     1.19088
