 48
-926.4793913156047
C     -1.51156    -3.68304     1.69882
O     -1.03066    -2.45588     1.17839
H     -1.09500    -3.82655     2.69406
H     -1.51353    -2.28421     0.33742
H     -2.59883    -3.67197     1.78034
H     -1.21986    -4.52724     1.06917
C     -1.13611    -2.69673    -2.11065
O     -2.08068    -2.09963    -1.22947
H     -1.17021    -2.22383    -3.09142
H     -2.19856    -1.17395    -1.54059
H     -0.12045    -2.60637    -1.71622
H     -1.37824    -3.75303    -2.21843
C     -3.11629     1.35861    -1.80084
O     -2.12448     0.38834    -2.08247
H     -2.99524     1.76449    -0.79340
H     -1.26215     0.85642    -2.12214
H     -3.06677     2.18156    -2.51493
H     -4.09585     0.89018    -1.87673
C      2.20382    -3.20138     0.69860
O      1.51605    -1.96693     0.68869
H      1.80514    -3.86952    -0.06865
H      0.57584    -2.15509     0.90965
H      3.25676    -3.02326     0.48348
H      2.12351    -3.69850     1.66733
C      3.33480     0.82950     1.21023
O      2.40432     0.17271     2.05577
H      2.82951     1.36834     0.40633
H      2.11899    -0.64069     1.59424
H      3.89503     1.54660     1.80603
H      4.03756     0.12339     0.76349
C      1.28464     0.70328    -2.10907
O      0.21682     1.64148    -2.09503
H      1.22835     0.12917    -3.03228
H      0.45371     2.34998    -1.45780
H      2.24820     1.21230    -2.09365
H      1.22363     0.01632    -1.25968
C      0.00964     4.56919    -0.13318
O      0.83870     3.42214    -0.19657
H      0.17970     5.17469    -1.02126
H      0.72651     2.93993     0.65253
H     -1.04694     4.29199    -0.09434
H      0.24114     5.17019     0.74683
C     -0.77082     1.08998     1.60700
O      0.34178     1.90346     1.97084
H     -0.75878     0.83152     0.54409
H      1.08467     1.30033     2.18154
H     -0.80135     0.16684     2.18422
H     -1.67664     1.65849     1.81798
