 36
-694.8469470302031
C     -2.47744     1.50068     1.18132
O     -1.72484     1.05132     0.05434
H     -1.95662     1.27913     2.11112
H     -1.63795     0.08012     0.08780
H     -2.60519     2.57710     1.08431
H     -3.46241     1.03330     1.20002
C      2.47730    -1.50043    -1.18132
O      1.72440    -1.05099    -0.05463
H      1.95693    -1.27915    -2.11146
H      1.63830    -0.07971    -0.08770
H      3.46217    -1.03287    -1.19955
H      2.60501    -2.57681    -1.08396
C      0.91073    -0.93665     3.26952
O     -0.33029    -0.47791     2.75189
H      1.21142    -0.25603     4.06661
H     -0.55475    -0.99981     1.97157
H      0.82384    -1.94202     3.68889
H      1.68758    -0.93886     2.50403
C     -0.91011     0.93740    -3.26960
O      0.33070     0.47825    -2.75185
H     -1.21116     0.25659    -4.06638
H      0.55522     1.00001    -1.97146
H     -1.68693     0.94033    -2.50407
H     -0.82272     1.94254    -3.68940
C     -1.29660    -2.21968    -1.08922
O     -0.83540    -1.60901     0.10802
H     -0.91859    -3.23962    -1.16360
H      0.14251    -1.52917     0.02177
H     -2.38397    -2.26070    -1.05580
H     -0.97739    -1.65557    -1.96564
C      1.29685     2.21985     1.08920
O      0.83564     1.60933    -0.10813
H      0.97739     1.65556     1.96540
H     -0.14206     1.52767    -0.02117
H      2.38425     2.26071     1.05598
H      0.91910     3.23988     1.16381
