 18
-347.4080866750648
C     -1.43580     2.08991     0.15843
O     -0.10414     2.48312    -0.07589
H     -1.85797     1.55282    -0.69966
H      0.39886     1.69597    -0.31449
H     -1.51296     1.45032     1.04561
H     -2.03398     2.98434     0.33271
C     -1.31313    -2.73358    -0.12424
O     -0.94774    -1.53367     0.55793
H     -2.26865    -3.11954     0.23565
H     -1.65430    -0.88806     0.47143
H     -1.36774    -2.57186    -1.20213
H     -0.53650    -3.46485     0.08588
C      2.54840    -0.13012     0.14608
O      1.29655    -0.00460    -0.51585
H      3.21826     0.61620    -0.27384
H      0.68323    -0.63355    -0.11622
H      2.44272     0.04753     1.21821
H      2.97740    -1.12156    -0.01416
