 60
-1158.090306133849
C      3.66000    -1.47674    -0.89653
O      2.82311    -2.42729    -0.25697
H      4.51379    -1.20250    -0.27374
H      2.56033    -2.06322     0.59739
H      4.03548    -1.92282    -1.81655
H      3.12214    -0.56403    -1.15512
C      1.26335    -2.23755    -3.23042
O      0.84578    -0.95395    -2.76610
H      0.43700    -2.73786    -3.73891
H      0.81480    -0.95975    -1.79674
H      2.06806    -2.09671    -3.95086
H      1.61978    -2.86000    -2.41290
C      4.20309     1.78426     2.06077
O      3.53418     1.25370     0.93248
H      4.82459     2.61576     1.73391
H      3.03073     0.47793     1.23808
H      3.49724     2.15190     2.80942
H      4.84632     1.03485     2.52946
C     -3.74133    -0.48495    -0.67093
O     -2.60167     0.35428    -0.88288
H     -3.87915    -1.14554    -1.52585
H     -2.32332     0.23073    -1.81842
H     -3.59514    -1.07957     0.22983
H     -4.63347     0.12788    -0.54283
C      1.11478    -0.01596     2.94297
O      1.74736    -0.61130     1.80833
H      1.87436     0.16356     3.70077
H      1.05655    -0.65091     1.11559
H      0.65160     0.93286     2.67310
H      0.36008    -0.68029     3.35661
C     -0.74303    -2.15977    -0.00390
O     -0.13020    -0.86560    -0.07186
H     -1.22006    -2.29999     0.96288
H     -0.82911    -0.18607    -0.09473
H     -1.48433    -2.27374    -0.79214
H      0.03212    -2.91126    -0.14006
C     -3.17689    -0.87619     3.83808
O     -2.32433    -0.78076     2.71210
H     -4.21505    -0.64248     3.58187
H     -2.46215     0.10072     2.31824
H     -3.14073    -1.89710     4.21805
H     -2.86121    -0.19785     4.63851
C      0.74301     2.17878    -1.24174
O      0.94728     2.23666     0.16134
H     -0.26123     1.81429    -1.45058
H      1.88371     2.07530     0.34742
H      0.83858     3.17378    -1.68535
H      1.45432     1.51015    -1.73244
C     -1.61412     0.93051    -4.25477
O     -1.63773    -0.12927    -3.30884
H     -1.57099     0.53517    -5.27078
H     -0.71948    -0.47094    -3.20709
H     -2.52950     1.51179    -4.14716
H     -0.75886     1.59133    -4.09835
C     -1.83951     2.64867     1.83436
O     -2.76426     1.61696     1.51481
H     -1.50687     2.50155     2.86316
H     -2.72465     1.44222     0.56134
H     -0.97382     2.61643     1.17638
H     -2.32736     3.62253     1.77530
