 24
-463.23072186460996
C     -0.45598     2.23340     1.71120
O      0.48456     1.22851     1.36833
H     -0.04617     3.22828     1.53096
H      0.67695     1.32071     0.41005
H     -1.38071     2.12603     1.13739
H     -0.68724     2.13936     2.77031
C      2.08599     0.84034    -1.73180
O      0.76606     1.13922    -1.30703
H      2.71730     1.70058    -1.51823
H      0.21308     0.34762    -1.48400
H      2.48689    -0.03065    -1.20590
H      2.11445     0.64418    -2.80437
C      0.44757    -2.18690     1.75412
O     -0.53615    -1.26510     1.31239
H      0.09187    -3.19368     1.54422
H     -0.19394    -0.36199     1.48769
H      1.39877    -2.03379     1.23686
H      0.61503    -2.09249     2.82772
C     -2.07993    -0.88524    -1.73297
O     -0.72638    -1.09977    -1.36708
H     -2.11466    -0.64948    -2.79471
H     -0.71026    -1.30321    -0.40674
H     -2.67785    -1.78015    -1.55463
H     -2.51702    -0.05418    -1.17246
