 24
-463.2211128781418
C      3.26929     1.31977     0.70365
O      2.23019     0.38595     0.96705
H      4.21693     0.80093     0.83226
H      1.38175     0.84246     0.91354
H      3.20800     1.69717    -0.32020
H      3.23459     2.16272     1.39710
C     -0.74259     2.06571    -1.01424
O     -0.45210     0.98489    -0.13766
H     -0.86089     2.96348    -0.41182
H     -0.08275     0.25714    -0.67333
H      0.07200     2.21933    -1.72476
H     -1.66654     1.88669    -1.56738
C     -3.53944    -0.69740     0.34314
O     -2.37070    -0.82208     1.12587
H     -4.27334    -1.40783     0.71881
H     -1.76821    -0.11717     0.86593
H     -3.96809     0.30694     0.40642
H     -3.34723    -0.92669    -0.70974
C      0.31815    -2.31419    -0.79550
O      0.98831    -1.10532    -1.15193
H      1.01522    -3.15222    -0.76309
H      1.69463    -0.93717    -0.51106
H     -0.18437    -2.22247     0.16787
H     -0.42605    -2.50644    -1.56534
