 36
-694.8497444236684
C      0.10184     2.90305    -2.74857
O      1.40115     2.94113    -2.19457
H     -0.56848     3.60952    -2.25084
H      1.33178     2.65587    -1.27803
H      0.17299     3.18503    -3.79788
H     -0.34099     1.90513    -2.68188
C      1.76358     0.80224     1.19563
O      0.88070     1.38206     0.24517
H      2.74303     0.62041     0.75200
H      0.69147     0.68909    -0.42684
H      1.87835     1.50124     2.02117
H      1.36990    -0.13967     1.58158
C      1.23643    -3.41410     0.63025
O      0.16810    -2.64296     0.11193
H      1.95087    -2.78260     1.16489
H     -0.30197    -2.22716     0.86533
H      0.86907    -4.18293     1.31269
H      1.74718    -3.89987    -0.19927
C      1.27741    -0.71683    -2.59597
O      0.36454    -0.57928    -1.52008
H      0.83923    -1.30273    -3.40544
H      0.30815    -1.43362    -1.03626
H      1.53282     0.26940    -2.97897
H      2.19627    -1.21192    -2.27249
C     -1.95693    -1.77588     3.03741
O     -1.04610    -1.29376     2.06658
H     -2.96727    -1.84705     2.62817
H     -1.28531    -0.36347     1.85078
H     -1.63206    -2.76563     3.35495
H     -1.97638    -1.11863     3.90824
C     -2.44640     1.29776     0.22191
O     -1.60796     1.22441     1.37314
H     -3.38566     0.79531     0.44542
H     -0.73883     1.56710     1.09922
H     -2.65962     2.33683    -0.02701
H     -1.97328     0.81821    -0.63703
