 60
-1158.0996088884003
C     -2.55736     0.64492    -2.79788
O     -2.48011    -0.42491    -1.86517
H     -2.94218     0.28497    -3.75353
H     -1.61884    -0.87598    -1.97886
H     -3.25312     1.38883    -2.41095
H     -1.59050     1.12046    -2.95879
C      1.22281     3.70223    -3.66146
O      0.71309     2.39240    -3.54497
H      0.48007     4.32178    -4.16183
H      1.42011     1.85277    -3.16305
H      1.43276     4.14600    -2.68380
H      2.14437     3.72665    -4.24937
C     -0.84695     1.36450     3.91315
O     -0.16236     0.32206     3.23496
H     -0.17621     1.79611     4.65102
H     -0.84298    -0.32324     2.90641
H     -1.15853     2.13948     3.21150
H     -1.73008     0.97533     4.41644
C     -1.46348    -2.28253     1.35370
O     -1.96979    -1.25978     2.21109
H     -2.25737    -2.68963     0.73299
H     -2.66056    -0.79227     1.68576
H     -0.67705    -1.90705     0.69750
H     -1.05443    -3.08511     1.96727
C      2.11271    -1.90448     4.50356
O      2.36638    -0.83783     3.61256
H      1.65882    -2.75606     3.98542
H      1.52793    -0.38650     3.46616
H      3.05847    -2.22733     4.93533
H      1.44728    -1.60874     5.31945
C      0.47811    -1.43007    -3.42567
O     -0.10585    -1.59858    -2.14009
H     -0.21933    -1.79591    -4.17673
H      0.59637    -1.45452    -1.47717
H      0.69073    -0.38075    -3.62958
H      1.40276    -2.00229    -3.51211
C     -4.88641    -0.89435     0.43708
O     -3.66329    -0.17780     0.48956
H     -4.78564    -1.79103    -0.17848
H     -3.26203    -0.23409    -0.40656
H     -5.17034    -1.19354     1.44597
H     -5.68156    -0.27246     0.02262
C      2.23858    -2.01553     0.55715
O      1.83765    -1.00719    -0.36469
H      1.43808    -2.22333     1.26730
H      1.57575    -0.21522     0.15737
H      2.46246    -2.91501    -0.01128
H      3.12254    -1.70339     1.10547
C      3.38999     1.88636    -1.38564
O      2.68650     0.99944    -2.24941
H      3.65968     2.77296    -1.95758
H      2.52031     0.17709    -1.76764
H      2.77462     2.18645    -0.53760
H      4.30948     1.42596    -1.02175
C     -0.20531     1.61918     0.11724
O      0.90628     1.14103     0.87645
H     -1.06466     0.95287     0.17309
H      0.58938     0.94477     1.77808
H     -0.50749     2.60017     0.47921
H      0.07978     1.72961    -0.92480
