 48
-926.4804235299431
C     -0.05730    -0.54304     2.91055
O     -0.29720    -1.56612     1.95307
H     -0.93338    -0.39196     3.54315
H     -1.10441    -1.31685     1.46771
H      0.77002    -0.85446     3.54575
H      0.20044     0.40336     2.42939
C     -0.93459     1.52552    -1.58745
O     -1.66338     1.70183    -0.36957
H     -1.18294     2.32625    -2.28333
H     -1.05740     2.19066     0.23308
H      0.13973     1.53101    -1.41251
H     -1.20320     0.57176    -2.03744
C     -3.72810    -0.65662     0.89786
O     -2.37207    -0.63936     0.49306
H     -4.36193    -0.25215     0.10828
H     -2.15423     0.28489     0.18856
H     -4.01708    -1.68667     1.09214
H     -3.86424    -0.06266     1.80227
C      1.75931    -0.60575    -2.63612
O      2.33502    -0.14806    -1.42021
H      2.48227    -1.20114    -3.19628
H      2.20518    -0.86232    -0.76064
H      0.86653    -1.20418    -2.45640
H      1.49098     0.25873    -3.24448
C     -2.74939    -2.52721    -2.24706
O     -1.50470    -2.25639    -1.63528
H     -3.00468    -3.58745    -2.15923
H     -1.67718    -1.78754    -0.81063
H     -3.55329    -1.94153    -1.79337
H     -2.70093    -2.27579    -3.30924
C      1.68276    -3.34419    -0.12412
O      1.80812    -2.02790     0.39599
H      0.82180    -3.41685    -0.78977
H      1.04424    -1.88767     0.99751
H      2.58648    -3.59211    -0.68088
H      1.57159    -4.07069     0.68242
C      0.16112     4.32878     0.88640
O      0.22695     2.91999     1.03067
H     -0.86143     4.65481     1.07502
H      1.10066     2.64106     0.67582
H      0.82131     4.82341     1.60112
H      0.44482     4.63259    -0.12371
C      3.34894     1.54175     1.13411
O      2.55835     2.04921     0.06426
H      3.12964     2.11641     2.03470
H      2.51284     1.32921    -0.59965
H      3.11876     0.49157     1.31519
H      4.40954     1.64276     0.90366
