 36
-694.8445451327043
C      0.68585     0.55584    -3.82409
O      0.40205     0.73579    -2.44664
H      0.00753     1.14912    -4.43888
H     -0.52635     0.45093    -2.29294
H      1.70506     0.88438    -4.01412
H      0.58960    -0.49464    -4.10796
C      1.84384    -0.30533     3.05754
O      2.47410     0.62589     2.20789
H      0.76148    -0.32848     2.91667
H      2.28253     0.37586     1.29900
H      2.23625    -1.31705     2.91502
H      2.04599    -0.01096     4.08627
C      2.50455    -1.29708    -1.11995
O      1.68256    -0.34861    -0.45781
H      1.96238    -1.77845    -1.93422
H      1.24940     0.18387    -1.17095
H      3.39089    -0.81137    -1.52749
H      2.81645    -2.05325    -0.40022
C     -2.92760     0.89668    -1.48137
O     -1.99089    -0.15775    -1.71181
H     -3.90335     0.48558    -1.22432
H     -1.85742    -0.63882    -0.88418
H     -2.58906     1.55340    -0.68309
H     -3.01882     1.46376    -2.40652
C     -0.70900    -2.63136     1.20772
O     -0.70167    -1.28665     0.74887
H     -0.27725    -3.30188     0.46152
H      0.20178    -1.03576     0.48519
H     -0.15022    -2.73298     2.14051
H     -1.74224    -2.91615     1.38654
C     -1.09815     1.86694     2.38714
O     -2.05372     1.01660     1.77931
H     -0.93744     1.59665     3.43391
H     -1.61103     0.20111     1.52619
H     -0.13531     1.84312     1.87181
H     -1.48027     2.88606     2.35734
