 42
-810.6627083734311
C     -4.14662     0.30917    -0.04708
O     -3.02212     0.24214    -0.90755
H     -5.05068     0.22226    -0.64598
H     -2.30158     0.71485    -0.45809
H     -4.12042    -0.50474     0.68254
H     -4.17444     1.25619     0.49479
C     -0.62467    -1.90305     1.42951
O     -0.09632    -0.64904     1.85667
H     -1.69689    -1.91408     1.62186
H      0.88423    -0.68108     1.76665
H     -0.46473    -2.06782     0.36390
H     -0.16605    -2.71726     1.98985
C     -2.46631    -2.64607    -3.01006
O     -1.99554    -2.21674    -1.74676
H     -3.53151    -2.89451    -2.98289
H     -2.43613    -1.38239    -1.52662
H     -2.30861    -1.88560    -3.78127
H     -1.91120    -3.54018    -3.29249
C     -1.10775     2.51675     1.55237
O     -1.13250     1.40195     0.67876
H     -1.70825     2.31365     2.43892
H     -0.77615     0.62135     1.18971
H     -0.08472     2.73942     1.86015
H     -1.52112     3.37402     1.02700
C      3.25271    -0.64196     2.84748
O      2.55753    -0.65682     1.61120
H      2.78565    -1.35753     3.52334
H      2.92109     0.07426     1.05988
H      4.29582    -0.93018     2.70519
H      3.22014     0.34877     3.30662
C      4.30098     1.01798    -0.95644
O      3.34368     1.33438     0.04122
H      4.71450     1.92743    -1.39368
H      2.50727     1.55491    -0.41799
H      5.11221     0.45276    -0.49813
H      3.86067     0.41533    -1.75220
C      0.72455     0.19186    -1.70293
O      0.93073     1.49439    -1.15173
H      1.16351     0.16685    -2.69921
H      0.17517     1.66843    -0.56991
H      1.20550    -0.57612    -1.09492
H     -0.33415    -0.04625    -1.78130
