 36
-694.856892125769
C     -1.05339     3.02839    -1.48295
O      0.02685     2.48933    -0.74763
H     -1.48073     3.89296    -0.97219
H     -0.35158     2.09851     0.06994
H     -0.69280     3.35355    -2.45809
H     -1.84374     2.28804    -1.63411
C      0.95502    -3.66664     1.12898
O      0.36346    -2.72724     0.24113
H      0.27025    -3.85447     1.95700
H      1.08831    -2.14094    -0.06960
H      1.14543    -4.60868     0.61242
H      1.89452    -3.28267     1.52582
C      2.37090    -0.16862     0.96168
O      2.33578    -0.98308    -0.20818
H      2.99091    -0.66284     1.70882
H      2.19756    -0.36596    -0.95811
H      2.80258     0.80636     0.73798
H      1.37139    -0.02264     1.37722
C      0.80301     0.15788    -2.99825
O      1.64365     0.80661    -2.06128
H      0.38229     0.87281    -3.70576
H      1.10146     1.48666    -1.60720
H      1.39697    -0.56689    -3.55119
H     -0.02000    -0.36870    -2.50565
C     -2.68986    -1.45532     0.44603
O     -1.55341    -1.21785     1.26267
H     -2.68739    -2.47834     0.07236
H     -0.84388    -1.81670     0.93137
H     -3.58988    -1.29544     1.03701
H     -2.70106    -0.77604    -0.41084
C     -2.12653     1.97550     2.08461
O     -1.05903     1.37847     1.37601
H     -3.02572     2.04038     1.46654
H     -1.21048     0.40802     1.37204
H     -2.36525     1.40562     2.98304
H     -1.83201     2.97998     2.38374
