 42
-810.6653545802764
C     -2.35705     1.33167    -0.71962
O     -2.08022     0.05241    -1.27621
H     -3.43019     1.45579    -0.57090
H     -2.08954    -0.60541    -0.54322
H     -1.83755     1.48381     0.22677
H     -2.02780     2.09498    -1.42471
C      0.76940    -3.62142     0.27160
O      0.55657    -2.42929     1.01365
H      0.24798    -4.43367     0.77375
H      1.02598    -1.70699     0.55701
H      0.38338    -3.53121    -0.74704
H      1.83236    -3.86470     0.22629
C     -2.59196    -1.18513     1.97040
O     -2.01274    -1.63665     0.75798
H     -2.10154    -0.27789     2.32237
H     -1.12547    -1.99907     0.94940
H     -3.64630    -0.97613     1.79673
H     -2.52300    -1.95115     2.74445
C      0.31779    -0.57962    -3.66782
O      0.21804     0.24500    -2.51554
H      1.34537    -0.55513    -4.02595
H     -0.71220     0.17511    -2.18271
H      0.04501    -1.61136    -3.43687
H     -0.33592    -0.21200    -4.45882
C      2.81484     0.25290    -0.33020
O      1.47895    -0.23253    -0.30327
H      3.29774    -0.01046     0.60921
H      1.04166    -0.03634    -1.17511
H      3.36844    -0.20665    -1.14832
H      2.82879     1.33382    -0.44515
C      0.74175     3.53085    -0.46493
O      1.45718     3.29512     0.72884
H     -0.27296     3.89234    -0.26673
H      0.93310     2.70135     1.27962
H      1.26436     4.30176    -1.03054
H      0.66879     2.63678    -1.08701
C      0.61493     0.32419     3.02224
O      0.13145     0.96713     1.85378
H      0.49494    -0.75892     2.97531
H      0.51611     0.52544     1.07855
H      1.66967     0.55290     3.19173
H      0.04242     0.69801     3.86945
