 60
-1158.0871054535655
C      0.61886    -1.35507    -3.26648
O      0.17527    -0.03892    -2.96053
H      1.64203    -1.51751    -2.92239
H     -0.15411    -0.04292    -2.04627
H     -0.03005    -2.10908    -2.81571
H      0.59012    -1.47848    -4.34680
C      3.53257     2.02104     0.70679
O      2.16923     1.90978     1.08151
H      3.77419     1.36256    -0.12904
H      1.99658     0.97911     1.26070
H      3.71729     3.04958     0.39837
H      4.19922     1.79532     1.54317
C     -0.98187     1.20661     0.04275
O     -0.59083    -0.13059    -0.29456
H     -1.81722     1.48740    -0.59406
H      0.24419    -0.33050     0.19231
H     -1.30290     1.26693     1.08223
H     -0.15981     1.90032    -0.11425
C     -0.49369    -1.82283     3.85644
O     -0.12233    -2.41359     2.61139
H     -0.74336    -0.76770     3.74040
H     -0.92432    -2.51498     2.07640
H     -1.34675    -2.34501     4.28550
H      0.34949    -1.91771     4.53588
C      5.12365    -0.44604    -3.37610
O      4.15861    -0.15077    -2.38733
H      5.80882    -1.19412    -2.97732
H      3.54773     0.51039    -2.75941
H      4.66286    -0.85085    -4.28289
H      5.70312     0.43927    -3.65417
C     -3.45860    -2.19308     0.04531
O     -2.34652    -1.84054     0.86317
H     -3.97210    -3.02688     0.51749
H     -1.77547    -1.24211     0.33866
H     -4.14698    -1.35228    -0.05493
H     -3.11921    -2.49851    -0.94423
C      2.05466     2.75381    -2.67981
O      2.28218     1.55210    -3.39487
H      1.13786     3.24029    -3.01826
H      1.45670     1.02727    -3.33325
H      1.97539     2.56548    -1.60748
H      2.88863     3.42817    -2.86364
C      2.33876    -1.73432     0.40342
O      1.48386    -0.87931     1.17126
H      1.77852    -2.58559     0.01514
H      0.98790    -1.45130     1.80567
H      2.75611    -1.17157    -0.42899
H      3.14981    -2.09749     1.03069
C     -4.26531    -0.64074     3.74743
O     -3.25657    -0.10456     2.90670
H     -3.85950    -1.39364     4.42737
H     -2.95153    -0.80407     2.30794
H     -4.67320     0.17317     4.34362
H     -5.07482    -1.09197     3.16760
C     -4.25302     2.83647     0.62389
O     -4.20420     1.42227     0.58958
H     -4.86310     3.20668     1.45253
H     -3.95442     1.09153     1.46097
H     -3.25294     3.27370     0.71267
H     -4.69380     3.18265    -0.31037
