 24
-463.2288687444082
C      2.87002     0.50840     0.83256
O      1.85738     0.74982    -0.12748
H      3.44340     1.42235     0.96983
H      1.51263    -0.11915    -0.42254
H      2.43903     0.21217     1.79239
H      3.54876    -0.27847     0.49805
C     -0.84158     2.78741    -0.75816
O     -0.60404     1.81232     0.24597
H     -0.16457     3.63536    -0.64587
H      0.33765     1.55161     0.18755
H     -0.71202     2.36515    -1.75799
H     -1.86494     3.14395    -0.65361
C     -2.73942    -0.95141     0.79486
O     -1.88941    -0.51102    -0.24958
H     -3.72080    -0.48065     0.71874
H     -1.59061     0.39711    -0.03374
H     -2.86384    -2.02935     0.70708
H     -2.31137    -0.72248     1.77343
C      0.74123    -2.62678     0.16565
O      0.54494    -1.52576    -0.70084
H      0.53534    -2.35773     1.20471
H     -0.39820    -1.26475    -0.63241
H      0.09940    -3.46421    -0.11201
H      1.77748    -2.94964     0.08568
