 36
-694.8581117247882
C      0.08803     2.35333    -0.95388
O      1.32717     1.81203    -0.51056
H     -0.69919     1.59772    -0.93920
H      1.51435     1.03555    -1.08383
H     -0.19206     3.17079    -0.28905
H      0.18187     2.75094    -1.96427
C      2.29987    -1.41945    -1.39404
O      1.56798    -0.37885    -2.01135
H      2.40480    -2.27396    -2.06273
H      0.65372    -0.70774    -2.14708
H      3.29455    -1.04843    -1.15302
H      1.82291    -1.75629    -0.46894
C      2.35404     1.04818     2.62813
O      1.09543     1.40522     2.09052
H      2.78554     0.19996     2.08915
H      1.24375     1.61633     1.13952
H      3.05219     1.88461     2.57296
H      2.22217     0.77294     3.67335
C     -3.23359     0.57329    -0.11627
O     -2.33869    -0.52306    -0.00652
H     -2.91141     1.40293     0.51488
H     -1.86503    -0.42736     0.85141
H     -3.26195     0.91192    -1.15420
H     -4.23990     0.27414     0.17965
C     -1.20082    -2.60772    -2.36773
O     -0.95844    -1.23232    -2.13720
H     -0.88987    -3.21126    -1.51034
H     -1.49598    -0.97090    -1.35543
H     -2.26023    -2.79085    -2.55441
H     -0.63847    -2.92569    -3.24493
C     -0.39623    -1.45796     2.66086
O     -0.98817    -0.23392     2.25067
H     -0.72341    -1.71199     3.66947
H     -0.27702     0.44398     2.24528
H     -0.70089    -2.25959     1.98414
H      0.69144    -1.38351     2.64488
