 42
-810.6691285496397
C     -0.76866     0.41496     3.51863
O      0.32093     0.92562     2.76790
H     -1.70015     0.48231     2.95476
H     -0.03388     1.68599     2.25303
H     -0.57684    -0.62915     3.76570
H     -0.88306     0.97420     4.44793
C     -1.96602    -0.11073    -0.14449
O     -1.99350     1.24481    -0.58858
H     -2.86772    -0.29703     0.43791
H     -1.45938     1.26463    -1.41211
H     -1.94341    -0.79492    -0.99128
H     -1.09654    -0.32293     0.48153
C      0.04353    -3.61950     0.26550
O      0.90991    -2.71377    -0.39504
H      0.56772    -4.13732     1.06947
H      1.20198    -2.05697     0.27534
H     -0.82149    -3.10190     0.68741
H     -0.30724    -4.35968    -0.45239
C      2.94940    -0.36010     1.11511
O      1.63394    -0.85437     1.31321
H      3.42360    -0.94150     0.32388
H      1.16012    -0.21066     1.88773
H      2.93724     0.69027     0.81610
H      3.54223    -0.45818     2.02538
C      0.78719    -2.29315    -3.77306
O      0.09282    -1.68919    -2.69821
H      0.69158    -3.38059    -3.73828
H      0.41403    -2.09729    -1.86453
H      0.36060    -1.93899    -4.70975
H      1.85004    -2.03803    -3.74821
C      1.03234     1.39400    -1.85101
O     -0.14875     0.97267    -2.51709
H      0.95192     2.46006    -1.64499
H     -0.06094     0.00902    -2.66694
H      1.18370     0.86535    -0.90646
H      1.90599     1.23734    -2.48564
C     -1.89661     3.57003     1.92403
O     -0.89886     2.76835     1.31521
H     -2.76107     2.96798     2.21570
H     -1.32784     2.29064     0.56901
H     -1.47804     4.03683     2.81410
H     -2.23377     4.35361     1.24478
