 36
-694.842127359508
C     -0.52082     3.50918    -1.92585
O      0.28352     2.39225    -1.58391
H     -0.95886     3.33274    -2.90577
H      0.66323     2.57454    -0.69278
H     -1.32148     3.65836    -1.19713
H      0.08319     4.41587    -1.97222
C      2.33179     1.67149     0.91467
O      1.14638     2.45941     0.92676
H      2.10254     0.60928     0.99985
H      0.47545     1.94078     1.41267
H      2.85711     1.84959    -0.02432
H      2.98935     1.96793     1.73282
C      2.35543    -1.57807    -1.29792
O      1.34309    -1.76526    -0.33136
H      2.62749    -0.52355    -1.40573
H      0.57948    -1.23085    -0.59033
H      3.24055    -2.12648    -0.97822
H      2.05459    -1.95029    -2.28127
C     -1.22124    -3.98773     1.04542
O     -2.21089    -2.97149     0.91358
H     -1.45750    -4.86451     0.43806
H     -3.04196    -3.29942     1.25600
H     -0.28775    -3.56052     0.69216
H     -1.08687    -4.29431     2.08669
C     -1.92151    -0.30801    -1.77152
O     -0.71287    -0.01810    -1.08728
H     -2.37934    -1.17206    -1.29324
H     -0.35468     0.85109    -1.38144
H     -2.61414     0.53535    -1.71934
H     -1.72569    -0.53963    -2.82060
C     -0.17673    -0.43590     2.62939
O     -0.64069     0.64684     1.82218
H     -1.01713    -0.98925     3.04872
H     -0.92665     0.28476     0.97300
H      0.44789    -1.11914     2.05365
H      0.40595    -0.01758     3.44911
