 48
-926.4778188130576
C     -4.42803    -1.37281     0.88111
O     -3.02740    -1.48070     0.68136
H     -4.83565    -2.31022     1.26099
H     -2.59411    -1.42444     1.56450
H     -4.66745    -0.57051     1.58130
H     -4.90072    -1.15095    -0.07649
C     -2.98260    -0.44379    -2.47281
O     -2.20824    -0.02431    -1.36044
H     -2.47148    -0.15612    -3.39073
H     -2.48258    -0.58005    -0.59228
H     -3.12071    -1.52509    -2.47315
H     -3.96007     0.04117    -2.45714
C     -0.45868    -1.79390     2.87524
O     -1.72856    -1.15710     2.98025
H     -0.21460    -2.30352     3.80664
H     -1.54684    -0.19658     3.06066
H     -0.49339    -2.53658     2.07630
H      0.32125    -1.06665     2.64727
C      2.47794     1.64943     1.11135
O      1.10872     1.26796     1.11507
H      3.01149     1.22455     0.26184
H      0.85637     1.04380     0.20470
H      2.56922     2.73648     1.08383
H      2.93862     1.28575     2.02949
C      0.54723     1.58201    -2.35222
O      0.28492     0.53918    -1.42007
H     -0.07687     1.46351    -3.23730
H     -0.68775     0.32886    -1.43761
H      0.33676     2.55417    -1.90152
H      1.59560     1.54266    -2.64365
C      2.19665    -1.86156    -0.05315
O      2.34549    -1.14460    -1.26100
H      3.04006    -2.54105     0.05127
H      1.53296    -0.62064    -1.38294
H      2.18085    -1.19146     0.80843
H      1.27782    -2.45212    -0.05598
C     -2.05600     2.07242     1.97373
O     -1.05385     1.43497     2.75373
H     -2.28623     1.50433     1.06926
H     -0.22664     1.45130     2.23855
H     -2.95731     2.15188     2.57936
H     -1.74463     3.07799     1.68740
C      5.22247     0.13641    -3.04593
O      4.22877     0.67678    -2.20126
H      4.83453    -0.68402    -3.65747
H      3.67871    -0.04735    -1.87218
H      5.57291     0.92369    -3.71410
H      6.07806    -0.23409    -2.47257
