 60
-1158.093277902743
C     -0.67578     3.70938    -0.19765
O     -1.41530     3.42005    -1.36739
H      0.06355     2.94085     0.04154
H     -0.88563     2.86543    -1.94652
H     -0.15465     4.66606    -0.29563
H     -1.35693     3.78203     0.64848
C      2.71303     2.42537    -1.22113
O      2.01347     1.18696    -1.19491
H      3.18673     2.58335    -0.25316
H      1.28107     1.23432    -1.85430
H      3.48643     2.40767    -1.98927
H      2.02701     3.24799    -1.42266
C      1.65104    -0.29427     1.96313
O      0.78572     0.34642     1.01984
H      2.09886    -1.18898     1.53668
H      1.32605     0.70895     0.28838
H      2.44078     0.39026     2.27586
H      1.06711    -0.57222     2.83596
C      1.53481    -2.02148    -2.28263
O      2.36516    -1.69844    -1.17116
H      1.88280    -1.53169    -3.19307
H      2.49663    -0.74079    -1.15106
H      1.57800    -3.09757    -2.44235
H      0.49928    -1.74439    -2.09732
C      2.62279    -4.75117     0.30361
O      1.86360    -3.62423     0.68512
H      3.66372    -4.49425     0.08513
H      2.07098    -2.91257     0.05868
H      2.61422    -5.46982     1.12221
H      2.19795    -5.23591    -0.58084
C     -1.32460    -2.36293     1.07255
O     -1.08964    -1.40016     0.04340
H     -2.34499    -2.72734     0.96560
H     -0.38718    -0.80464     0.35515
H     -0.63478    -3.19690     0.96255
H     -1.20462    -1.92914     2.06351
C     -1.11732     0.23831     5.68964
O     -1.21076    -0.43741     4.45168
H     -0.47707     1.12317     5.62177
H     -1.41194     0.21360     3.76750
H     -2.10047     0.54971     6.05473
H     -0.68230    -0.44547     6.41817
C     -3.25487     0.20126    -2.09641
O     -1.95371    -0.35555    -2.25400
H     -3.20158     1.29085    -2.03252
H     -1.72091    -0.82316    -1.42345
H     -3.87602    -0.07785    -2.94604
H     -3.72467    -0.17416    -1.18591
C     -2.59409     1.17854     1.45285
O     -1.46910     1.38503     2.29105
H     -3.45431     1.64053     1.93138
H     -0.67607     1.12931     1.79685
H     -2.45105     1.63798     0.47434
H     -2.79706     0.11654     1.32123
C      0.34345     1.17102    -4.28791
O     -0.00955     1.27362    -2.91473
H     -0.30105     1.80449    -4.89698
H     -0.76416     0.65256    -2.74274
H      1.37493     1.49908    -4.41344
H      0.26099     0.13919    -4.63031
