 36
-694.8510940417109
C      0.10344     2.34675    -0.97616
O      0.77648     2.99109     0.08478
H     -0.30494     3.11145    -1.63847
H      0.78370     2.36747     0.81959
H      0.77949     1.71610    -1.55900
H     -0.72189     1.72257    -0.62649
C      1.25660    -1.84031    -3.27606
O      0.54705    -0.95513    -2.42386
H      0.78795    -1.82138    -4.25784
H      1.13413    -0.71915    -1.67875
H      2.29705    -1.52775    -3.38016
H      1.23387    -2.86316    -2.89181
C      1.60765    -1.78508     0.56812
O      1.87947    -0.55965    -0.10962
H      2.34561    -2.52514     0.26140
H      1.70464     0.16648     0.50941
H      1.66264    -1.65715     1.64865
H      0.61505    -2.16168     0.31150
C      0.71030     1.45732     3.28347
O      0.69898     0.97188     1.95210
H      0.94658     0.65160     3.98072
H     -0.15880     0.50676     1.80719
H      1.47081     2.22988     3.36527
H     -0.25846     1.88521     3.54335
C     -2.69409    -0.10211    -1.79430
O     -1.80758    -1.00519    -1.14107
H     -3.47856    -0.65247    -2.31516
H     -0.99461    -1.06728    -1.68397
H     -3.15551     0.54588    -1.04610
H     -2.15895     0.52231    -2.51191
C     -1.98544    -1.37340     2.24125
O     -1.53471    -0.31803     1.41026
H     -1.33936    -2.24986     2.14812
H     -1.64662    -0.60306     0.47292
H     -1.97776    -1.03998     3.27803
H     -3.00405    -1.66469     1.98251
