 42
-810.6690480686727
C     -1.19444    -2.32992     2.81907
O     -1.24084    -2.23053     1.40302
H     -1.97032    -1.69696     3.25375
H     -0.30879    -2.25949     1.08926
H     -1.36670    -3.36026     3.13622
H     -0.22444    -2.00056     3.19184
C      1.79515    -3.11466    -0.30445
O      1.26302    -2.17224     0.60343
H      1.54712    -2.85856    -1.33791
H      1.67149    -1.30203     0.40682
H      2.88099    -3.17454    -0.21398
H      1.37682    -4.09462    -0.07707
C     -3.99829    -0.35741     0.75230
O     -2.61585    -0.10088     0.60418
H     -4.26211    -0.46229     1.80702
H     -2.13866    -0.90226     0.91255
H     -4.55865     0.47978     0.33827
H     -4.29125    -1.27055     0.22849
C      3.71231     0.35560    -0.19589
O      2.33303     0.16120     0.04588
H      4.14221    -0.57229    -0.57381
H      1.96052     1.02021     0.36398
H      3.86474     1.13573    -0.94418
H      4.23425     0.63973     0.71874
C     -0.86626    -0.62537    -2.03227
O     -1.60344     0.56122    -1.75597
H     -0.79113    -0.75129    -3.11074
H     -2.05827     0.39784    -0.90259
H      0.14149    -0.57588    -1.61656
H     -1.36770    -1.49597    -1.61141
C      0.20874     2.34342     1.74275
O      1.21104     2.42831     0.73664
H     -0.14587     3.33848     2.01070
H      0.76123     2.68844    -0.09850
H     -0.64054     1.73923     1.41723
H      0.65403     1.88597     2.62481
C      0.95177     2.52773    -2.63927
O     -0.01804     2.71139    -1.62304
H      0.48232     2.41871    -3.61766
H     -0.66546     1.97618    -1.69987
H      1.60055     3.40113    -2.66031
H      1.56500     1.64196    -2.45256
