 30
-579.0434223953904
C      2.09968     2.24436    -1.73352
O      1.51623     1.53225    -0.66143
H      2.93393     2.82927    -1.35167
H      0.62702     1.23250    -0.94451
H      2.47184     1.56180    -2.50312
H      1.38206     2.92704    -2.19397
C     -3.24122    -1.28925     0.67916
O     -1.87506    -1.20524     0.31315
H     -3.45681    -2.24623     1.15768
H     -1.34072    -1.07278     1.12924
H     -3.51797    -0.48378     1.36251
H     -3.84821    -1.20700    -0.22124
C     -0.38883     0.92768     2.42512
O     -0.21778    -0.47974     2.26323
H      0.32235     1.47360     1.80460
H      0.68464    -0.60992     1.90403
H     -1.39974     1.20367     2.12342
H     -0.24931     1.20714     3.46996
C      1.95002    -1.72948     0.00494
O      2.09783    -0.62953     0.89229
H      2.06806    -2.64680     0.57931
H      2.07670     0.18824     0.36136
H      0.96556    -1.73722    -0.46897
H      2.71223    -1.70708    -0.77555
C     -0.85481    -0.07328    -2.70813
O     -0.83158     0.50918    -1.41751
H     -0.06120    -0.81842    -2.80877
H     -1.25156    -0.12131    -0.78990
H     -1.81128    -0.55860    -2.90586
H     -0.70435     0.70479    -3.45432
