 36
-694.8481763677867
C      0.68695     3.66767    -2.90302
O     -0.60933     3.21882    -2.57637
H      0.93160     4.60791    -2.40000
H     -0.61729     3.01986    -1.63214
H      1.44704     2.92623    -2.63637
H      0.73259     3.82908    -3.97966
C      1.60064    -2.73525     2.80299
O      0.90641    -1.57915     2.36485
H      2.38576    -2.46607     3.51187
H      1.32265    -1.27858     1.53181
H      0.90104    -3.40841     3.29890
H      2.05066    -3.25998     1.95756
C      2.45964     0.35200    -0.30028
O      1.60513    -0.77107    -0.10630
H      1.88471     1.26017    -0.47645
H      0.77920    -0.63348    -0.59550
H      3.06090     0.48223     0.60080
H      3.13100     0.17542    -1.14180
C     -2.03640    -0.23813    -1.96565
O     -1.07825    -0.32578    -0.91658
H     -1.89404    -1.05233    -2.67738
H     -1.42328    -0.88634    -0.18114
H     -3.04758    -0.28426    -1.56135
H     -1.89787     0.71016    -2.48061
C     -1.45546    -3.20454     0.83543
O     -1.52939    -1.83323     1.21405
H     -2.01437    -3.82033     1.54018
H     -0.76253    -1.67239     1.80015
H     -1.89511    -3.33049    -0.15483
H     -0.41864    -3.53835     0.80769
C     -0.31377     1.93361     1.45198
O     -0.47345     2.13328     0.05571
H     -1.24265     1.59076     1.91284
H     -0.74360     1.27552    -0.31371
H      0.47101     1.20744     1.66516
H     -0.03783     2.88812     1.89702
