 60
-1158.0904591579344
C      2.25144    -1.20269     1.39202
O      1.76853     0.00642     0.83088
H      3.24347    -1.08179     1.83326
H      2.51885     0.55265     0.52343
H      1.56769    -1.50889     2.18514
H      2.28200    -1.99449     0.64197
C      1.39797     3.70628     1.43450
O      1.92651     3.81895     0.12047
H      1.23807     2.66211     1.71212
H      1.20406     3.62257    -0.50133
H      2.11179     4.14550     2.12865
H      0.45223     4.24391     1.52341
C      4.78140     2.03231     0.72355
O      3.64795     1.76716    -0.08644
H      5.63952     2.30420     0.10639
H      3.10496     2.58337    -0.11855
H      4.58451     2.84108     1.42872
H      5.03793     1.13433     1.28753
C     -4.62294    -0.98133     1.61210
O     -3.69400    -1.38332     2.59889
H     -5.28107    -1.80267     1.31708
H     -3.24848    -2.17681     2.27244
H     -5.24070    -0.18493     2.02736
H     -4.12774    -0.60274     0.71382
C      2.00678    -0.03414    -2.47648
O      0.79738     0.37461    -1.82795
H      1.78682    -0.17906    -3.53156
H      0.81530     0.02743    -0.91815
H      2.77807     0.72765    -2.36604
H      2.36100    -0.97163    -2.05364
C     -0.92438    -3.42937     1.96314
O     -2.12286    -3.29664     1.22190
H     -0.96962    -4.37220     2.50409
H     -1.97782    -2.65460     0.50973
H     -0.04333    -3.43552     1.32049
H     -0.82146    -2.62437     2.69513
C     -0.80102     3.30531    -2.57730
O     -0.01052     2.81912    -1.50529
H     -1.14745     4.30481    -2.32841
H      0.33268     1.92435    -1.75605
H     -0.21887     3.34677    -3.49878
H     -1.66724     2.65926    -2.73443
C     -1.28308     1.00153     1.68875
O     -1.56296     1.01247     0.28140
H     -2.04959     0.42141     2.18878
H     -1.09493     1.75495    -0.13095
H     -0.30582     0.56384     1.87517
H     -1.30237     2.01485     2.09544
C      0.07716    -4.11235    -1.58884
O      0.61243    -2.87632    -1.15268
H     -0.65907    -4.51149    -0.88865
H     -0.12857    -2.26353    -1.02367
H     -0.39502    -4.02496    -2.57097
H      0.89377    -4.82798    -1.67448
C     -2.28304    -1.20731    -2.07225
O     -1.71560    -1.36147    -0.78023
H     -1.55632    -0.77157    -2.75748
H     -1.64935    -0.46209    -0.37811
H     -2.58289    -2.18566    -2.44151
H     -3.16355    -0.56627    -2.02690
