 48
-926.474102025605
C     -2.83616    -1.82720     2.46763
O     -3.32854    -0.78310     1.64573
H     -3.38681    -2.75537     2.30028
H     -2.89651    -0.86102     0.78702
H     -1.77227    -2.01336     2.29750
H     -2.96164    -1.53315     3.51049
C      1.06724    -3.15633    -0.66868
O      0.29788    -2.37492     0.22923
H      1.55079    -2.52614    -1.41204
H      0.91758    -1.84120     0.78089
H      1.82313    -3.73317    -0.13300
H      0.40667    -3.86197    -1.17207
C     -1.74980    -1.06245    -2.04704
O     -1.60644    -0.83295    -0.64907
H     -2.63696    -1.66783    -2.22840
H     -0.90212    -1.45362    -0.32151
H     -1.86440    -0.10482    -2.55591
H     -0.86968    -1.56448    -2.43960
C      1.04797     3.05740    -2.71329
O      1.19771     2.19287    -1.59674
H      1.86345     2.86213    -3.40912
H      0.40620     2.25333    -1.04186
H      0.10160     2.87528    -3.22840
H      1.09638     4.10360    -2.40599
C     -2.38397     2.33403     0.36772
O     -1.15109     1.69721     0.05722
H     -2.16337     3.31048     0.79513
H     -1.34061     0.76969    -0.20953
H     -2.98225     2.47480    -0.53378
H     -2.95518     1.75192     1.08853
C      2.98553    -0.21766     0.88891
O      1.87998    -0.75243     1.60218
H      3.61966    -1.03429     0.54371
H      1.38879     0.01657     1.96493
H      2.65348     0.36316     0.02878
H      3.58567     0.42507     1.53408
C     -0.49505     1.12239     3.32846
O      0.44879     1.40011     2.30368
H     -0.00972     0.51904     4.09531
H     -0.04896     1.63455     1.50327
H     -0.84085     2.04701     3.79414
H     -1.35571     0.57638     2.94225
C      2.74133    -0.40735    -3.12358
O      1.52147    -0.37222    -2.41816
H      2.94977    -1.43975    -3.40919
H      1.41614     0.52231    -2.05147
H      2.69608     0.19116    -4.03765
H      3.57974    -0.04646    -2.51887
