 60
-1158.0908213957846
C     -0.02933     4.89795     1.94639
O      0.87841     4.60416     0.89749
H      0.21396     4.32595     2.84633
H      0.66400     3.70647     0.59135
H      0.04190     5.95963     2.17215
H     -1.05690     4.66888     1.65555
C      1.76450     1.64568    -0.46841
O      0.64632     1.93197     0.37508
H      1.75354     0.60245    -0.78523
H      0.83021     1.51637     1.25956
H      1.69167     2.27492    -1.35293
H      2.69914     1.85319     0.04987
C      3.59247    -1.52408     1.06554
O      2.21417    -1.53114     1.39552
H      4.17630    -1.53952     1.98415
H      1.70830    -1.74430     0.58214
H      3.86304    -2.39562     0.46978
H      3.85667    -0.62597     0.50132
C     -3.31877    -4.52525    -0.07656
O     -2.98297    -3.17917    -0.34743
H     -2.51332    -5.21264    -0.35778
H     -2.68514    -3.12594    -1.27290
H     -3.49960    -4.63150     0.99272
H     -4.22503    -4.83275    -0.60761
C     -1.89869    -0.05452     0.76593
O     -1.30438     0.20795    -0.51549
H     -1.14340     0.01535     1.54683
H     -0.70564     0.96556    -0.38568
H     -2.68688     0.66928     0.97047
H     -2.32048    -1.05448     0.75798
C      0.37344    -3.35469    -0.92130
O      0.78602    -1.99050    -0.80992
H     -0.00474    -3.56174    -1.92022
H      0.01576    -1.41326    -0.90377
H      1.24381    -3.98300    -0.73828
H     -0.39249    -3.59350    -0.18396
C     -4.11772    -0.29925    -2.14313
O     -2.78903    -0.44996    -2.61839
H     -4.29003    -0.89549    -1.24539
H     -2.20654    -0.13369    -1.89852
H     -4.33492     0.74665    -1.91978
H     -4.80417    -0.62824    -2.92191
C     -3.13785    -3.64246    -3.89915
O     -2.23497    -3.02022    -3.00647
H     -2.88338    -3.41800    -4.93616
H     -2.37444    -2.05056    -3.05669
H     -3.07569    -4.72014    -3.75477
H     -4.16670    -3.32437    -3.71289
C      4.49671     4.77213     1.13320
O      3.53773     3.87331     1.66346
H      4.43885     4.82113     0.04145
H      2.65469     4.20568     1.44070
H      4.37061     5.78290     1.53146
H      5.48802     4.41351     1.41004
C      2.22770     1.19948     3.44364
O      1.25829     0.63605     2.57009
H      2.56792     0.46279     4.17220
H      1.61466    -0.21873     2.23181
H      3.08752     1.58448     2.89315
H      1.76488     2.02477     3.98441
