 24
-463.2288658779628
C      1.46049     1.97887     2.06900
O      0.98972     0.81746     1.40743
H      2.35164     2.37296     1.57647
H      1.12462     0.94474     0.44452
H      0.69486     2.75837     2.08720
H      1.71776     1.71214     3.09194
C      0.05827     2.15660    -1.55786
O      0.85529     1.01683    -1.26284
H     -0.36821     2.08502    -2.55834
H      0.34257     0.23083    -1.54807
H     -0.75670     2.26848    -0.83923
H      0.69418     3.03964    -1.51272
C     -1.38597    -1.76040     1.93516
O     -1.21231    -0.70176     1.00883
H     -0.48962    -2.38321     1.99395
H     -0.45641    -0.15023     1.29327
H     -1.61451    -1.37578     2.93081
H     -2.22154    -2.37190     1.59847
C     -0.11470    -2.37166    -1.72961
O     -0.75713    -1.11265    -1.61634
H      0.78541    -2.41965    -1.11054
H     -1.09028    -1.03824    -0.69897
H     -0.78536    -3.17884    -1.43042
H      0.16325    -2.52019    -2.76974
