 42
-810.6626153977022
C     -2.37336    -3.72590     1.18951
O     -1.56248    -3.17023     0.16882
H     -3.15588    -4.31384     0.71175
H     -0.82156    -2.70451     0.57388
H     -1.80186    -4.37985     1.85381
H     -2.85027    -2.94896     1.79577
C      1.91472     1.35746     2.17838
O      0.58555     0.85765     2.12408
H      1.88155     2.43927     2.31689
H      0.60368     0.01741     1.62790
H      2.45396     0.93123     3.02750
H      2.45535     1.14030     1.25757
C     -2.72600    -0.04023     0.53397
O     -2.13569     0.81983    -0.43918
H     -3.54988     0.46548     1.03629
H     -1.84076     1.62950     0.04262
H     -3.10983    -0.92849     0.04053
H     -1.99472    -0.34579     1.28313
C      3.11136     1.44672    -2.44919
O      2.45453     0.93578    -1.29837
H      3.37550     0.65021    -3.15100
H      1.57550     0.61537    -1.54472
H      2.49880     2.18643    -2.97351
H      4.02880     1.93359    -2.12064
C     -0.63446    -1.25312    -2.59280
O     -0.12902    -0.26334    -1.69993
H     -0.99370    -0.78536    -3.50831
H     -0.90584     0.20876    -1.29571
H      0.17491    -1.93842    -2.83862
H     -1.44356    -1.81387    -2.12798
C      2.06906    -1.93560     0.54976
O      0.76451    -1.37149     0.62158
H      2.77762    -1.22436     0.12825
H      0.52189    -1.05985    -0.27275
H      2.38248    -2.19960     1.55747
H      2.06229    -2.84166    -0.05865
C     -0.06950     3.43199     0.14213
O     -0.97312     2.73477     0.98824
H     -0.60126     3.74631    -0.75530
H     -0.43830     2.12704     1.53964
H      0.30383     4.32625     0.64475
H      0.77690     2.80463    -0.14448
