 36
-694.8494518257419
C     -3.15387     1.57085    -1.80636
O     -2.40978     0.40461    -2.11182
H     -4.19231     1.39842    -2.07735
H     -1.46519     0.61755    -1.96503
H     -3.10288     1.80811    -0.73987
H     -2.78294     2.42802    -2.36949
C      3.49823     1.72552     2.73912
O      2.53187     1.55526     1.71926
H      3.34073     2.70274     3.19612
H      2.57272     0.64042     1.39887
H      3.40485     0.96226     3.51825
H      4.51773     1.69036     2.34200
C      2.53903    -1.40001    -0.57854
O      2.26029    -1.06071     0.77126
H      3.59475    -1.64990    -0.65921
H      1.30654    -1.20374     0.90670
H      1.95036    -2.26362    -0.89382
H      2.31966    -0.56443    -1.24471
C     -2.43652    -2.84953    -1.09732
O     -2.58103    -1.63320    -0.37182
H     -3.26821    -2.98706    -1.78828
H     -2.66256    -0.90866    -1.03171
H     -1.50208    -2.86248    -1.66392
H     -2.43151    -3.67422    -0.38777
C      0.65705     2.15824    -1.09410
O      0.09166     0.86107    -1.27871
H      0.74910     2.61462    -2.07655
H      0.11514     0.37830    -0.44127
H      0.01365     2.78302    -0.46984
H      1.64128     2.10017    -0.63276
C     -0.75695    -0.21850     2.11827
O     -0.39364    -1.00157     0.98332
H      0.15416     0.13522     2.59646
H     -1.22438    -1.30555     0.54381
H     -1.35386     0.64550     1.81587
H     -1.32935    -0.81687     2.82576
