 48
-926.473672426288
C      1.25050     0.08283     2.47421
O      1.65525    -1.00265     1.65158
H      1.92500     0.17258     3.32670
H      1.93563    -0.63543     0.79528
H      1.26855     1.01754     1.91571
H      0.23973    -0.08134     2.84215
C     -3.73171     1.10649    -1.01586
O     -2.42626     1.41042    -1.49125
H     -4.23401     0.40792    -1.68669
H     -1.87683     0.61378    -1.46298
H     -3.69660     0.68185    -0.01292
H     -4.30089     2.03453    -0.99748
C      0.96487     2.54368    -2.68285
O      1.34566     2.46088    -1.31066
H     -0.04855     2.16794    -2.82416
H      0.56197     2.78101    -0.79580
H      1.01551     3.57601    -3.02668
H      1.65317     1.94537    -3.27907
C      3.04513    -0.46670    -1.65795
O      2.10316     0.06227    -0.74256
H      3.23715    -1.50269    -1.38883
H      1.94288     1.02910    -0.92999
H      2.65840    -0.43982    -2.67705
H      3.98005     0.08991    -1.61616
C     -2.29761    -1.61055     1.95031
O     -1.87905    -0.36446     1.41140
H     -1.46872    -2.15515     2.39922
H     -1.27781    -0.52638     0.67245
H     -3.04354    -1.41455     2.71940
H     -2.75286    -2.24683     1.18662
C      1.64631    -4.38424     1.81624
O      0.59095    -3.48559     1.53371
H      2.61235    -3.87258     1.83670
H      0.93506    -2.58091     1.62516
H      1.49522    -4.86760     2.78550
H      1.68538    -5.16074     1.04825
C     -0.96461     3.06005     1.28209
O     -0.89170     3.18659    -0.13140
H     -1.18811     2.03652     1.58460
H     -1.58544     2.63406    -0.54324
H      0.00026     3.34936     1.69871
H     -1.72116     3.73344     1.68747
C     -0.50361    -2.12292    -1.50736
O     -0.46264    -0.74377    -1.14816
H     -0.02800    -2.28709    -2.47557
H      0.47151    -0.49725    -1.01691
H     -0.01622    -2.74032    -0.75684
H     -1.54693    -2.42086    -1.59002
