 36
-694.8537399545615
C     -0.85515     3.00591    -0.63741
O     -0.34874     1.74147    -1.05863
H     -1.54235     2.89083     0.19882
H     -1.06255     1.08279    -0.99828
H     -0.01515     3.62560    -0.32140
H     -1.36150     3.50767    -1.46395
C      0.50630    -1.98170    -1.81141
O     -0.17924    -2.16917    -0.57824
H     -0.20657    -1.64665    -2.56486
H      0.47728    -2.01476     0.13437
H      1.29012    -1.23112    -1.71385
H      0.94825    -2.92164    -2.14382
C      2.96726    -2.03253     1.09427
O      1.70878    -1.39047     1.15132
H      3.70582    -1.50976     1.70513
H      1.83595    -0.46088     0.86582
H      2.85865    -3.04478     1.47874
H      3.34414    -2.08466     0.06925
C      3.03986     1.42382    -0.72368
O      1.94394     1.04610     0.08563
H      3.04379     0.85984    -1.66020
H      1.11808     1.32169    -0.37038
H      3.00856     2.48848    -0.96059
H      3.96433     1.21863    -0.18652
C     -3.37519    -0.92656    -0.95122
O     -2.10091    -0.39025    -0.62294
H     -3.42033    -1.98315    -0.68870
H     -1.44682    -1.13093    -0.55463
H     -4.13567    -0.39034    -0.38554
H     -3.57038    -0.80852    -2.01781
C     -1.09840     0.89347     2.39022
O     -2.37084     0.96532     1.77381
H     -0.36082     1.50086     1.86137
H     -2.32592     0.43810     0.96649
H     -1.19111     1.27627     3.40629
H     -0.71704    -0.12884     2.44595
