 24
-463.2204106725174
C      2.87983     0.59430    -0.82146
O      1.47223     0.46174    -0.87737
H      3.37546    -0.21852    -1.35726
H      1.24883    -0.42462    -0.52685
H      3.15348     1.53818    -1.29013
H      3.23737     0.59801     0.21209
C     -0.57245     3.09246     0.69101
O     -0.48975     1.68144     0.76841
H     -0.89816     3.47447     1.65926
H      0.20204     1.36691     0.16556
H      0.39464     3.54475     0.45180
H     -1.29851     3.41026    -0.06481
C     -2.34035    -0.38210    -0.94271
O     -1.97499    -1.75693    -0.75730
H     -1.53949     0.17332    -1.42989
H     -1.99864    -2.19572    -1.60764
H     -3.25811    -0.30213    -1.52648
H     -2.50847     0.04489     0.04207
C      0.54420    -1.61365     1.70547
O      0.55591    -1.76216     0.28935
H      0.19685    -0.61854     1.98952
H     -0.37136    -1.84811     0.00179
H     -0.10031    -2.36393     2.16382
H      1.56090    -1.75635     2.06579
