 36
-694.8496387326816
C      0.04146     4.05462     0.01489
O     -0.24947     3.79908    -1.34282
H      1.11934     4.11610     0.19265
H      0.18697     2.97569    -1.58311
H     -0.40274     5.01257     0.28034
H     -0.37149     3.28555     0.67318
C      1.56839    -3.74478     0.40201
O      0.81275    -2.64740    -0.07513
H      1.80411    -3.63107     1.46371
H      1.37165    -1.84131    -0.00672
H      0.98597    -4.65413     0.26605
H      2.50299    -3.84372    -0.15170
C      1.83123     0.22158     1.47355
O      2.15409    -0.34832     0.20832
H      0.75401     0.23629     1.64481
H      1.84308     0.26823    -0.47791
H      2.30938    -0.37844     2.24577
H      2.21121     1.24030     1.54297
C      0.40734     0.08569    -2.66064
O      0.57627     0.99468    -1.58142
H      0.30651    -0.94160    -2.30282
H     -0.18322     0.85897    -0.96937
H     -0.47530     0.34308    -3.24804
H      1.28699     0.15260    -3.29533
C     -1.56819    -2.30771     2.25398
O     -1.55581    -1.92262     0.89109
H     -2.50469    -1.97980     2.69983
H     -0.73247    -2.28551     0.49623
H     -1.49927    -3.39183     2.35206
H     -0.73639    -1.85656     2.80135
C     -2.62185     1.29499    -0.04101
O     -1.39448     0.61915     0.18052
H     -3.20856     1.34581     0.87810
H     -1.56889    -0.31062     0.45336
H     -2.41333     2.30993    -0.37372
H     -3.21404     0.78913    -0.80608
