 36
-694.8577624961902
C      0.33604     3.49170    -0.42431
O      0.61973     2.25579     0.20448
H      1.21030     3.81287    -0.99064
H     -0.23703     1.87721     0.51222
H     -0.50866     3.39966    -1.10967
H      0.10465     4.25814     0.31873
C      3.53524     1.23217    -1.15909
O      2.28573     0.59290    -0.99954
H      4.21888     0.55028    -1.66228
H      1.68148     1.23918    -0.57353
H      3.43763     2.13441    -1.76739
H      3.96287     1.51298    -0.19307
C      1.35335    -1.17705     1.56340
O      1.83298    -1.71912     0.33348
H      1.80620    -1.71321     2.39792
H      2.12086    -0.95923    -0.20914
H      1.60033    -0.11743     1.64043
H      0.26880    -1.28219     1.62904
C     -0.21188    -2.07700    -2.18759
O     -0.38931    -2.61564    -0.88077
H     -1.16676    -1.68831    -2.54279
H      0.46243    -2.47100    -0.41451
H      0.51568    -1.26466    -2.17460
H      0.12512    -2.85180    -2.87643
C     -3.54619    -1.39149    -0.42051
O     -2.34615    -1.24820     0.31434
H     -4.36683    -0.98185     0.16624
H     -1.66703    -1.82375    -0.10512
H     -3.49363    -0.85335    -1.37004
H     -3.75868    -2.44157    -0.62452
C     -1.81705     1.28324     2.45882
O     -1.61359     1.17819     1.06115
H     -1.46082     2.25710     2.79256
H     -1.90448     0.28077     0.78741
H     -2.87648     1.19685     2.70372
H     -1.26712     0.50609     2.99382
