 48
-926.480716421864
C     -1.80245    -4.63860     0.60873
O     -2.10106    -3.35422     1.12525
H     -0.82979    -4.65515     0.10968
H     -2.33835    -2.77634     0.36779
H     -1.78354    -5.35005     1.43006
H     -2.56294    -4.95834    -0.10629
C     -2.56159     1.79207    -0.11194
O     -1.57028     0.79443     0.02335
H     -3.39470     1.37880    -0.67903
H     -0.76584     1.18926     0.42250
H     -2.93194     2.11517     0.86343
H     -2.17947     2.66448    -0.64847
C     -0.49380    -0.83713     2.73640
O     -0.03500    -1.83740     1.83688
H      0.22568    -0.02186     2.78067
H     -0.78330    -2.44812     1.64968
H     -1.45654    -0.43522     2.42430
H     -0.59786    -1.25356     3.73934
C      0.64504     0.70276    -2.83763
O      1.83070     0.57792    -2.07276
H      0.68672     1.64705    -3.37994
H      1.71126    -0.12434    -1.39610
H      0.57862    -0.09801    -3.57791
H     -0.24909     0.69605    -2.21172
C     -1.36231    -2.02278    -1.88763
O     -2.25994    -1.61035    -0.86998
H     -1.60000    -1.53084    -2.83410
H     -1.98756    -0.72502    -0.55165
H     -0.32365    -1.81587    -1.62268
H     -1.47502    -3.09633    -2.03512
C      0.37619     3.05340     2.07677
O      0.53737     2.05931     1.08355
H      1.33371     3.31363     2.52963
H      1.22579     2.35758     0.44275
H     -0.07040     3.95990     1.66073
H     -0.27720     2.67052     2.85981
C      1.77649     3.92168    -1.56258
O      2.26342     2.84896    -0.77560
H      2.26919     3.94598    -2.53517
H      2.25620     2.04406    -1.34222
H      0.69719     3.84805    -1.72471
H      1.98587     4.85505    -1.04574
C      2.83795    -0.66194     0.75682
O      1.70932    -1.07646    -0.00135
H      3.20412    -1.47219     1.39089
H      1.02884    -1.39070     0.63465
H      3.63791    -0.37494     0.07441
H      2.59221     0.19597     1.38575
