 60
-1158.0918281796073
C      3.42676    -3.47829     0.15394
O      2.02535    -3.31886     0.00012
H      3.68851    -3.80799     1.16281
H      1.70218    -2.75889     0.71634
H      3.75646    -4.24104    -0.55221
H      3.96477    -2.55336    -0.05831
C      0.60700     2.56204    -2.26067
O      0.00153     1.28301    -2.39620
H     -0.12504     3.32941    -2.51282
H      0.71408     0.62920    -2.25424
H      0.95164     2.72527    -1.23852
H      1.45248     2.66603    -2.94262
C     -1.43484    -2.26480    -0.80415
O     -0.49663    -1.29630    -0.32694
H     -1.76652    -2.01581    -1.81242
H      0.25302    -1.24320    -0.93790
H     -0.98700    -3.25833    -0.80328
H     -2.29959    -2.26181    -0.14611
C     -5.05698    -1.09308    -1.23898
O     -4.29222    -0.47554    -0.22350
H     -5.64650    -0.36589    -1.80439
H     -3.66028     0.12829    -0.65159
H     -4.42333    -1.63997    -1.94431
H     -5.73855    -1.80365    -0.77289
C      0.21786     3.44896     2.51294
O      0.59462     2.51045     1.53120
H     -0.70104     3.97814     2.23775
H     -0.11745     1.85413     1.47957
H      0.05057     2.97217     3.48449
H      1.01515     4.18423     2.62540
C      2.48689    -1.40465    -2.77456
O      1.93310    -0.45736    -1.87278
H      3.50089    -1.11843    -3.05557
H      2.54336    -0.33012    -1.11154
H      2.49539    -2.39345    -2.31987
H      1.86929    -1.42089    -3.67128
C     -2.57686     2.51712    -0.72988
O     -2.37825     1.18413    -1.18826
H     -3.33872     2.51345     0.04880
H     -1.52200     1.14092    -1.66983
H     -1.66494     2.93802    -0.30499
H     -2.91580     3.15480    -1.54939
C      3.67939     1.25236     0.60162
O      3.34255    -0.11366     0.35392
H      4.23364     1.34415     1.53655
H      2.73278    -0.42686     1.04134
H      4.31438     1.58993    -0.21571
H      2.78634     1.87340     0.64737
C      0.76838    -0.92453     3.18582
O      1.12157    -1.28211     1.85681
H      0.40743     0.10163     3.23483
H      0.35203    -1.15729     1.27333
H     -0.00012    -1.59700     3.57277
H      1.65846    -1.02606     3.80283
C     -2.61348     0.56597     2.45858
O     -1.49609     0.76401     1.59568
H     -3.39549    -0.01776     1.97981
H     -1.64861     0.33019     0.74664
H     -2.27988     0.04975     3.35926
H     -3.01795     1.53662     2.74478
