 36
-694.8465841676149
C      2.17847     2.83001     3.02427
O      1.14356     1.95812     2.62361
H      2.76687     3.17631     2.16864
H      1.54225     1.11959     2.35481
H      1.72788     3.69869     3.50452
H      2.85786     2.35554     3.73887
C      1.16414     2.13619    -0.67472
O      0.44890     1.01422    -1.19555
H      1.49281     2.73521    -1.52120
H      0.46064     0.30812    -0.53953
H      0.52668     2.74065    -0.02984
H      2.03658     1.81099    -0.10986
C      2.80796    -1.58298     2.29140
O      2.01818    -0.55967     1.70464
H      2.57437    -2.55370     1.85094
H      1.21590    -0.97133     1.34108
H      3.85868    -1.36187     2.10590
H      2.64050    -1.63381     3.36960
C     -3.17640    -2.55050    -1.18962
O     -1.84867    -2.11324    -1.43027
H     -3.82692    -1.70666    -0.95224
H     -1.89514    -1.30615    -1.98727
H     -3.57623    -3.06960    -2.06141
H     -3.17017    -3.23958    -0.34724
C     -1.36480    -0.58393     1.33486
O     -0.34947    -1.24616     0.57350
H     -2.15945    -0.24076     0.67602
H     -0.81981    -1.69756    -0.16303
H     -1.78348    -1.27057     2.06910
H     -0.92981     0.26844     1.85512
C     -1.61399     0.53640    -4.01752
O     -1.72961     0.28709    -2.62562
H     -1.64092     1.60848    -4.22190
H     -0.96704     0.69292    -2.16980
H     -0.68353     0.12436    -4.41408
H     -2.45656     0.06191    -4.51794
