 60
-1158.0927268102403
C     -2.09550    -2.17952     2.62100
O     -1.49875    -1.72360     1.40929
H     -1.56944    -3.05603     2.99604
H     -0.56276    -1.49670     1.60176
H     -2.07701    -1.39868     3.38065
H     -3.12859    -2.45108     2.41222
C      1.58560    -0.49553    -4.86873
O      2.01553     0.62447    -4.12131
H      0.90609    -0.14653    -5.64646
H      2.41307     0.31545    -3.29772
H      2.42291    -1.01128    -5.34471
H      1.04461    -1.21584    -4.24497
C      3.91442     0.76192    -0.78443
O      2.73045     0.18314    -1.30936
H      4.67840    -0.01256    -0.72018
H      2.02926     0.84228    -1.16792
H      4.28794     1.56243    -1.42721
H      3.75130     1.16787     0.21566
C      1.37144     3.31609    -1.80884
O      0.94515     2.26199    -0.95397
H      0.62649     4.10908    -1.83222
H      0.03055     1.98268    -1.24432
H      2.30171     3.72096    -1.41651
H      1.53850     2.94532    -2.82026
C      1.99568    -1.74329     1.18427
O      1.01269    -1.02723     1.92806
H      2.16720    -2.69765     1.67522
H      1.19009    -0.06351     1.81729
H      1.65268    -1.91642     0.16509
H      2.92580    -1.18201     1.14449
C     -1.20507     0.22266    -2.53887
O     -1.36506     1.34914    -1.67430
H     -0.55719    -0.52975    -2.08660
H     -1.91748     1.06224    -0.90997
H     -2.16078    -0.24344    -2.76422
H     -0.74872     0.55769    -3.46732
C     -2.07535    -3.47409    -2.00676
O     -2.68352    -2.49878    -1.17717
H     -2.81243    -3.79301    -2.74174
H     -2.15767    -2.38421    -0.37585
H     -1.21629    -3.06382    -2.54636
H     -1.74492    -4.35099    -1.44431
C      0.06460     2.15020     2.27915
O      1.24875     1.62344     1.67379
H     -0.83786     1.70674     1.85377
H      1.24848     1.93320     0.74821
H      0.09853     1.93616     3.34333
H      0.01689     3.23145     2.14652
C      1.33946     0.10048     5.20034
O      0.17965    -0.49324     4.64712
H      2.16312    -0.61570     5.27067
H      0.42865    -0.85286     3.78859
H      1.67572     0.95283     4.60402
H      1.10121     0.45135     6.20416
C     -4.13373     0.23760     0.14991
O     -2.76754     0.51086     0.42795
H     -4.26056    -0.74678    -0.29899
H     -2.37131    -0.28216     0.82936
H     -4.73202     0.30286     1.06184
H     -4.49694     0.99193    -0.54737
