 60
-1158.1000115504805
C      1.72063    -1.93195     1.65428
O      0.75299    -2.11702     0.62641
H      1.41934    -2.45856     2.55984
H     -0.07981    -2.41055     1.05657
H      2.67508    -2.34310     1.32577
H      1.85685    -0.87621     1.88290
C      0.70701     4.10000    -0.01740
O      1.65810     3.09638    -0.32367
H      0.70694     4.87979    -0.78104
H      1.47829     2.74850    -1.22446
H     -0.29146     3.67554     0.06523
H      0.98638     4.55426     0.93279
C      3.91135     1.91520     1.80439
O      2.88777     1.24127     1.09763
H      3.49619     2.67901     2.46771
H      2.39278     1.92770     0.59915
H      4.45613     1.19051     2.40899
H      4.61179     2.39873     1.11859
C     -1.67177    -4.09463     2.37171
O     -1.50367    -2.79940     1.82450
H     -2.47166    -4.09808     3.11382
H     -2.31740    -2.59468     1.31261
H     -1.90617    -4.82872     1.59797
H     -0.74504    -4.38947     2.86284
C     -0.80336    -1.17317    -2.14379
O      0.29734    -0.52854    -1.51362
H     -0.51872    -2.17052    -2.48228
H      0.57649    -1.07631    -0.74894
H     -1.66041    -1.25937    -1.47418
H     -1.09092    -0.57967    -3.01076
C     -4.92428    -2.63034     0.79701
O     -3.63821    -2.18283     0.41237
H     -5.15625    -2.32717     1.82149
H     -3.70558    -1.22931     0.18073
H     -5.69130    -2.23115     0.13305
H     -4.95130    -3.71705     0.73684
C     -0.68925     1.04868     1.28454
O     -1.23327     1.36775     0.00254
H     -0.68304    -0.02419     1.46798
H     -0.60704     1.07089    -0.67353
H      0.31840     1.43795     1.39725
H     -1.32651     1.51046     2.03620
C      2.33638     2.04062    -3.57492
O      1.26198     1.87876    -2.65317
H      2.13436     1.49347    -4.49755
H      1.21024     0.94349    -2.40004
H      2.41970     3.10094    -3.81208
H      3.27094     1.68753    -3.14072
C      3.63926    -1.50129    -1.46978
O      3.70596    -0.09492    -1.36926
H      4.47091    -1.97914    -0.94074
H      3.47440     0.18891    -0.47419
H      2.70137    -1.90392    -1.08746
H      3.71875    -1.76485    -2.52388
C     -4.32707     1.13603     1.04596
O     -3.73027     0.44512    -0.03942
H     -5.40769     1.02354     0.98451
H     -2.82984     0.82477    -0.13741
H     -3.98759     0.73649     2.00578
H     -4.08919     2.19897     1.01248
