 36
-694.857081237667
C     -0.70597     2.66585    -1.38141
O     -1.54236     1.56139    -1.72120
H     -0.75222     3.42867    -2.15873
H     -0.97155     0.92867    -2.20548
H     -1.06181     3.09643    -0.44540
H      0.32771     2.33952    -1.25506
C      3.74753     0.20407    -1.08911
O      2.34555     0.31741    -0.95974
H      4.25691     0.63049    -0.22232
H      2.09361    -0.14873    -0.13486
H      4.05157    -0.84080    -1.18961
H      4.06328     0.74815    -1.97715
C      2.44520    -1.27929     2.30281
O      1.57874    -0.97145     1.23063
H      3.27155    -1.88371     1.93123
H      0.73142    -0.66711     1.62907
H      2.84546    -0.37031     2.75901
H      1.92470    -1.84930     3.07319
C     -3.29803    -0.62732     0.09711
O     -2.53987     0.49892     0.50430
H     -3.89899    -0.39491    -0.78142
H     -2.21297     0.93258    -0.31867
H     -2.64606    -1.47295    -0.14139
H     -3.96549    -0.91547     0.90750
C     -0.08956    -1.45026    -2.25484
O      0.30713    -0.15639    -2.68535
H      0.51815    -2.21716    -2.73553
H      1.11797     0.06265    -2.18550
H      0.00308    -1.55090    -1.17127
H     -1.12953    -1.61217    -2.54098
C     -1.28402    -0.81056     3.38365
O     -0.68115    -0.18895     2.26748
H     -1.59224    -1.83285     3.14842
H     -1.39611     0.12115     1.66930
H     -0.56266    -0.84037     4.19854
H     -2.15684    -0.25051     3.71987
