 36
-694.8544083140807
C      0.72894     1.57559    -3.19100
O     -0.16588     1.95534    -2.16789
H      0.25212     1.76275    -4.15094
H      0.25962     1.74943    -1.32637
H      1.65923     2.14957    -3.15080
H      0.98688     0.51443    -3.13391
C      2.10022     2.08470     0.78943
O      1.12003     1.22015     0.24332
H      2.93613     2.19547     0.09756
H      1.52581     0.32353     0.09652
H      1.64807     3.06102     0.95339
H      2.47169     1.70302     1.74105
C      2.57461    -1.84729     1.07649
O      2.06565    -1.18632    -0.07315
H      3.57603    -1.47526     1.28150
H      1.24125    -1.66774    -0.33145
H      1.93862    -1.66150     1.94659
H      2.62850    -2.92276     0.90965
C     -0.79810    -1.70293    -1.86755
O     -0.32646    -2.13924    -0.59858
H     -0.94009    -0.62130    -1.89712
H     -0.99925    -1.87873     0.07185
H     -0.06369    -1.98637    -2.62108
H     -1.74139    -2.19046    -2.11326
C     -2.15269     2.21892     0.59270
O     -1.36900     1.27643     1.31265
H     -2.15632     2.00232    -0.47624
H     -0.46239     1.29928     0.95523
H     -3.17260     2.17296     0.97028
H     -1.77165     3.23089     0.74366
C     -1.94011    -1.82354     2.48712
O     -2.11298    -1.27998     1.19048
H     -0.88896    -1.79060     2.78942
H     -1.95313    -0.31315     1.25915
H     -2.52817    -1.27298     3.22263
H     -2.27276    -2.85975     2.48123
