 36
-694.8491810936487
C     -0.54715     0.95337     3.03751
O     -1.22588     0.56819     1.85555
H     -0.65459     0.16118     3.77730
H     -1.05850     1.27623     1.19191
H      0.51697     1.11929     2.85295
H     -0.97763     1.86785     3.44730
C      2.80799     1.58518    -0.64258
O      1.57941     1.27299    -1.27067
H      3.00579     2.64900    -0.76239
H      1.50847     0.29591    -1.27965
H      2.77530     1.34891     0.42543
H      3.63311     1.03372    -1.09262
C      2.42830    -2.27886    -0.80914
O      1.36231    -1.37120    -1.02384
H      2.94348    -2.06611     0.13090
H      0.63143    -1.59334    -0.42082
H      2.06307    -3.30736    -0.78713
H      3.13031    -2.17795    -1.63420
C     -1.17150    -2.79337     1.62881
O     -0.69919    -1.75572     0.78559
H     -0.87521    -2.61193     2.66246
H     -0.95048    -0.89232     1.20357
H     -2.25858    -2.86203     1.58030
H     -0.73669    -3.73164     1.29305
C     -1.66956    -0.63682    -2.35622
O     -2.20629    -1.75075    -1.66550
H     -1.57036     0.23966    -1.71237
H     -1.75882    -1.80429    -0.81762
H     -0.69131    -0.87162    -2.78187
H     -2.34546    -0.38455    -3.17401
C     -0.25699     3.69741     0.31079
O     -0.51834     2.33850     0.02157
H      0.54868     3.80397     1.04199
H      0.22235     1.98909    -0.51877
H      0.01964     4.24566    -0.59102
H     -1.16191     4.14481     0.71814
