 36
-694.8496871315097
C      0.79127    -2.32934    -0.69408
O      0.47165    -1.23944    -1.55078
H      0.42034    -3.26186    -1.12142
H     -0.50294    -1.11213    -1.51835
H      1.87136    -2.39588    -0.59957
H      0.36004    -2.20114     0.29819
C      2.51279     1.43227    -0.56933
O      1.12905     1.14686    -0.73797
H      3.00240     1.53064    -1.53823
H      1.03005     0.24758    -1.14609
H      2.59815     2.37350    -0.03245
H      3.00494     0.64650     0.00352
C      2.36674    -2.39891     2.62970
O      2.48570    -1.21244     1.87235
H      2.11166    -3.25092     1.99016
H      1.64215    -0.73966     1.89039
H      3.32388    -2.61097     3.10722
H      1.60344    -2.31310     3.40852
C     -1.85098     2.77278    -2.22710
O     -1.52547     2.14718    -0.98912
H     -1.57998     3.82936    -2.20953
H     -0.55950     2.07712    -0.92008
H     -1.34329     2.28366    -3.06217
H     -2.92726     2.69098    -2.37079
C     -2.71226    -1.08626    -0.06599
O     -2.07864    -0.52706    -1.20576
H     -3.64809    -0.57089     0.15557
H     -2.05389     0.44244    -1.10549
H     -2.93894    -2.12977    -0.27852
H     -2.06091    -1.03390     0.80674
C     -0.91417     1.11701     2.24154
O      0.06233     0.28078     1.63751
H     -1.61158     1.52173     1.50646
H      0.37671     0.71373     0.82550
H     -1.47339     0.51135     2.95413
H     -0.44952     1.94336     2.78373
