 54
-1042.284265458212
C      2.67517    -3.40319     0.85752
O      1.89194    -2.88469    -0.20931
H      3.73877    -3.33963     0.62074
H      2.13479    -1.94598    -0.31240
H      2.49156    -2.85954     1.78568
H      2.41266    -4.45048     0.99522
C      0.47852     1.42406     2.20028
O      0.13837     1.08586     0.86186
H      1.22695     0.72757     2.57312
H     -0.24118     1.89594     0.41426
H      0.88301     2.43474     2.25705
H     -0.39862     1.36607     2.84528
C     -1.73260    -2.92921     0.30551
O     -0.68513    -2.11677    -0.19910
H     -1.93681    -3.77713    -0.35220
H      0.17806    -2.58048    -0.13623
H     -1.48330    -3.31010     1.29791
H     -2.62790    -2.31847     0.38785
C      2.37016     0.43241    -1.51607
O      2.09454    -0.23083    -0.29067
H      2.87412     1.37988    -1.32401
H      1.30974     0.20359     0.11898
H      3.03126    -0.20063    -2.10691
H      1.44876     0.61257    -2.06755
C      0.02123    -1.42288    -3.29237
O     -0.87488    -0.74157    -2.43486
H      0.90793    -1.74539    -2.74402
H     -0.87707    -1.22726    -1.58340
H     -0.45506    -2.30106    -3.73022
H      0.32443    -0.75318    -4.09714
C     -2.16588     3.62802     0.29822
O     -1.05065     3.03546    -0.35359
H     -1.85767     3.97998     1.28171
H     -1.40318     2.60524    -1.16983
H     -2.52440     4.48603    -0.27124
H     -2.97867     2.91333     0.41585
C     -3.46450     1.35413    -2.18139
O     -2.07595     1.61655    -2.34030
H     -3.85406     0.79801    -3.03511
H     -1.62085     0.75250    -2.41683
H     -3.64472     0.78777    -1.26838
H     -3.99839     2.30305    -2.12347
C      4.28135     0.85044     2.40508
O      3.65110    -0.39090     2.16091
H      5.24524     0.92276     1.89488
H      3.27086    -0.37110     1.27505
H      3.65964     1.69388     2.08651
H      4.45383     0.94043     3.47668
C     -2.92210    -0.23128     2.35082
O     -2.70731     0.28769     1.05377
H     -2.97352     0.56760     3.09510
H     -1.75689     0.33453     0.88067
H     -3.87425    -0.76165     2.36668
H     -2.13718    -0.93268     2.65139
