 60
-1158.094168595527
C      0.54993    -3.59254    -2.64940
O     -0.45909    -3.52092    -1.66215
H      1.29087    -2.80042    -2.51888
H     -1.03662    -2.75787    -1.88176
H      1.05339    -4.55488    -2.57307
H      0.13128    -3.50516    -3.65305
C      1.01351     2.56046    -3.45099
O      1.44198     1.60742    -2.49403
H      0.70687     3.50361    -2.98881
H      1.60304     2.06092    -1.65667
H      1.80413     2.76967    -4.17355
H      0.15588     2.16024    -3.99820
C      3.05774     3.03609     0.69386
O      1.81695     2.64781     0.11621
H      3.22299     2.51357     1.63828
H      1.09059     3.14047     0.58935
H      3.85508     2.78466    -0.00067
H      3.07248     4.10829     0.88164
C     -2.04254    -1.06546     1.20950
O     -1.42699    -0.21662     0.23614
H     -2.32701    -0.48298     2.08543
H     -0.46903    -0.15373     0.44232
H     -2.93377    -1.49586     0.75980
H     -1.37247    -1.86517     1.51313
C      0.02680    -4.98044     1.44621
O      0.34220    -3.71946     0.89216
H      0.49780    -5.79443     0.88824
H      0.01269    -3.70062    -0.02571
H      0.39456    -5.01450     2.47167
H     -1.05319    -5.15398     1.46644
C      1.96525    -0.76789    -0.08689
O      1.16855     0.10734     0.72859
H      1.68977    -0.67120    -1.13532
H      1.41622     1.02993     0.50080
H      3.02087    -0.52690     0.02093
H      1.79709    -1.78746     0.24436
C     -1.28193    -0.49419    -3.19452
O     -1.83251    -1.30895    -2.17149
H     -1.20395    -1.08435    -4.10578
H     -1.77577    -0.81108    -1.33210
H     -1.94063     0.35133    -3.40964
H     -0.29400    -0.11427    -2.93265
C     -0.18006     3.23234     2.82802
O     -0.15201     3.66498     1.46934
H     -0.01972     2.15631     2.90789
H     -0.96490     3.30846     1.03856
H      0.60710     3.74967     3.37157
H     -1.13655     3.47880     3.28680
C      0.58527    -1.86971     3.78749
O      0.25369    -0.54059     3.42179
H     -0.27105    -2.30770     4.30375
H      0.69520    -0.33547     2.59035
H      0.81666    -2.48259     2.91705
H      1.43531    -1.88070     4.47432
C     -2.00570     2.67833    -1.19473
O     -2.11602     2.41770     0.19902
H     -1.15993     2.14731    -1.63772
H     -1.99849     1.45763     0.31575
H     -2.92246     2.38362    -1.70833
H     -1.86549     3.75042    -1.34143
