 60
-1158.0934531234054
C     -1.20470    -3.86616    -3.21982
O     -1.60154    -2.50599    -3.21139
H     -0.48463    -4.08727    -2.42922
H     -1.73239    -2.24309    -2.29393
H     -2.06354    -4.53409    -3.11545
H     -0.73499    -4.06871    -4.18262
C     -0.94599     3.01950    -2.02075
O     -0.78874     2.96080    -0.60730
H     -0.17961     3.65667    -2.45564
H      0.19131     2.95904    -0.43737
H     -0.85161     2.01973    -2.44892
H     -1.92834     3.42487    -2.25118
C      2.65477    -0.12335     1.24014
O      2.59751     0.31232    -0.11623
H      1.67619    -0.05293     1.71588
H      2.13821    -0.39301    -0.61721
H      2.99969    -1.15533     1.30641
H      3.35866     0.50742     1.78293
C      1.27003    -1.22301    -2.83770
O      1.24008    -1.54614    -1.44635
H      1.18130    -2.12287    -3.44236
H      0.30430    -1.56465    -1.15995
H      0.46114    -0.53908    -3.09487
H      2.22310    -0.73965    -3.05022
C      2.64585    -4.97411    -0.13420
O      1.42274    -4.34948    -0.48272
H      2.41933    -5.99210     0.18018
H      1.60185    -3.45294    -0.78547
H      3.33504    -5.01818    -0.98282
H      3.14213    -4.46196     0.69586
C     -1.47009     0.42363     3.88702
O     -0.53725     0.14401     2.86265
H     -0.96539     0.31583     4.84537
H     -0.94316     0.38329     2.02180
H     -1.87027     1.43664     3.81369
H     -2.30711    -0.28009     3.86849
C     -1.25772    -2.44466     0.67803
O     -1.32616    -1.58333    -0.46445
H     -0.50857    -2.09149     1.38704
H     -1.63819    -0.70219    -0.16025
H     -2.22526    -2.48838     1.17826
H     -0.98405    -3.44290     0.34312
C      2.60050     3.52593     0.64930
O      1.78181     2.81677    -0.26688
H      3.65203     3.42855     0.38141
H      2.10753     1.88467    -0.27631
H      2.33025     4.57959     0.61532
H      2.46981     3.16323     1.67180
C     -0.54462     3.78869     2.69576
O     -1.75606     3.80422     1.96404
H     -0.07969     2.79929     2.69711
H     -1.53168     3.77211     1.02630
H      0.17485     4.51051     2.30040
H     -0.76514     4.06731     3.72641
C     -3.37751     1.15468     0.68247
O     -2.02536     0.80220     0.38375
H     -3.91740     0.24527     0.93918
H     -1.57806     1.60105     0.02535
H     -3.41164     1.84306     1.52272
H     -3.85196     1.61453    -0.18251
