 42
-810.6704728390338
C     -3.32953    -0.91385    -1.06959
O     -2.08058    -0.67037    -1.68342
H     -3.30247    -0.68716    -0.00091
H     -1.85437     0.28247    -1.56003
H     -4.11603    -0.31565    -1.53268
H     -3.58622    -1.96501    -1.19261
C     -0.82013    -1.60705     1.94442
O      0.54655    -1.29338     2.19563
H     -1.41415    -0.69243     1.99010
H      1.06764    -1.69981     1.46786
H     -0.95050    -2.05751     0.95973
H     -1.19005    -2.29463     2.70390
C      2.37013    -1.06153    -0.64999
O      1.71250    -2.17040    -0.05311
H      2.37948    -0.21085     0.03150
H      0.99057    -2.42241    -0.66560
H      3.40352    -1.32198    -0.88366
H      1.86348    -0.75336    -1.56423
C      0.11315    -2.75950    -3.11154
O     -0.28240    -2.57645    -1.76546
H      0.37265    -1.80580    -3.57776
H     -0.96458    -1.86695    -1.75692
H      0.98523    -3.41171    -3.14057
H     -0.68595    -3.22344    -3.69191
C     -2.29013     2.51505    -0.34233
O     -1.44454     1.83779    -1.25866
H     -3.28880     2.07912    -0.38730
H     -0.52594     2.01298    -0.95521
H     -1.91092     2.42470     0.67642
H     -2.36885     3.57268    -0.59886
C      1.31450     3.69510    -0.13630
O      0.91882     2.33840    -0.20275
H      1.03862     4.19014    -1.06640
H      0.98844     1.97243     0.70677
H      0.82492     4.21237     0.69218
H      2.39570     3.77938    -0.00984
C      2.28701     1.45738     2.90987
O      1.05132     1.30162     2.23360
H      2.40078     2.49983     3.20358
H      0.81881     0.34242     2.27889
H      2.32128     0.83628     3.80454
H      3.12122     1.17667     2.26088
