 36
-694.8531789764971
C      1.06543     3.30231    -3.27559
O      0.66390     2.77622    -2.02349
H      1.83529     2.68153    -3.74607
H      0.29163     1.89727    -2.16654
H      0.22379     3.39727    -3.96826
H      1.48205     4.29413    -3.10296
C      1.74332    -2.53747     2.31386
O      0.88745    -1.45884     1.98264
H      2.73394    -2.17331     2.59358
H      1.22789    -1.04133     1.15928
H      1.32008    -3.07219     3.16352
H      1.84815    -3.23036     1.47655
C      2.42769     0.90855    -0.04883
O      1.72092    -0.30845    -0.25882
H      3.15288     0.74667     0.74680
H      1.06107    -0.15030    -0.95709
H      2.95718     1.20977    -0.95057
H      1.75484     1.71563     0.24224
C     -0.62833    -1.06618    -2.71297
O     -0.38815     0.11114    -1.95813
H     -1.57201    -0.98512    -3.25150
H     -1.09216     0.16738    -1.26006
H      0.18142    -1.18535    -3.42897
H     -0.66434    -1.94244    -2.06360
C     -2.35844    -1.51566     3.10188
O     -1.75991    -1.69949     1.83164
H     -2.07308    -0.55718     3.54179
H     -0.78688    -1.70709     1.96158
H     -3.43983    -1.54070     2.98338
H     -2.06699    -2.31087     3.79091
C     -1.46642     1.37303     0.84111
O     -2.00227     0.29031     0.07813
H     -0.71752     1.01741     1.55046
H     -2.02298    -0.49063     0.67535
H     -1.00186     2.08873     0.16319
H     -2.26388     1.87965     1.38657
