 60
-1158.1013718993186
C      3.77253    -2.73553     0.36792
O      2.39954    -2.60364     0.68940
H      4.18408    -3.55763     0.95227
H      2.02005    -1.94004     0.09348
H      3.93306    -2.95804    -0.69128
H      4.33668    -1.82902     0.61171
C     -0.44915     4.33767    -0.43962
O     -0.37710     2.93652    -0.24188
H     -0.94356     4.81794     0.40244
H     -0.22944     2.75399     0.73029
H      0.55216     4.75791    -0.54713
H     -1.02184     4.53354    -1.34500
C      1.37317    -1.66894    -2.37609
O      1.24839    -0.90129    -1.17798
H      2.23848    -1.33479    -2.94980
H      1.25410     0.05386    -1.44839
H      1.52778    -2.71400    -2.11496
H      0.47609    -1.58400    -2.98420
C     -3.05121     0.75780    -0.39194
O     -2.15985     1.21030    -1.39828
H     -2.52197     0.30289     0.44365
H     -1.53328     1.83115    -0.98617
H     -3.66497     1.58410    -0.02699
H     -3.71783     0.01162    -0.82029
C      0.73699     1.86022    -3.23519
O      1.20844     1.58717    -1.91963
H      0.98362     2.88115    -3.52992
H      0.71692     2.17018    -1.30958
H      1.23003     1.17814    -3.92514
H     -0.33914     1.71171    -3.31529
C      0.18429    -2.91732     3.26426
O     -0.20797    -1.61002     2.88914
H      0.99278    -3.28391     2.63282
H     -0.48092    -1.63630     1.94766
H      0.52298    -2.89143     4.29977
H     -0.65733    -3.61137     3.20284
C     -3.07239    -0.76129    -3.98539
O     -1.83675    -0.69961    -3.30353
H     -3.86042    -1.18159    -3.35241
H     -1.90860    -0.01585    -2.61384
H     -3.40385     0.22326    -4.32992
H     -2.95795    -1.40582    -4.85679
C      2.59646     0.23951     2.40097
O      1.43944     0.48870     3.18417
H      2.36681     0.22069     1.33465
H      0.88851    -0.32256     3.17288
H      3.31004     1.03948     2.58901
H      3.05822    -0.70864     2.67101
C     -1.38646    -2.77950    -0.26638
O     -0.89522    -1.59626     0.33767
H     -1.67957    -2.59876    -1.29850
H     -0.17059    -1.26361    -0.22367
H     -0.64302    -3.57708    -0.23741
H     -2.26311    -3.11323     0.28775
C     -1.36018     2.02381     2.84634
O     -0.11553     2.42922     2.27744
H     -1.39610     0.93982     2.95352
H      0.55176     1.78216     2.61623
H     -1.49432     2.48761     3.82220
H     -2.17566     2.33899     2.19381
