 42
-810.6700315534395
C      2.87963    -0.46984    -0.68464
O      1.58036    -0.47077    -1.25191
H      3.21909     0.56183    -0.58367
H      1.22746    -1.38470    -1.16131
H      2.87583    -0.93268     0.30488
H      3.57965    -1.01187    -1.32141
C      0.07799    -3.07293     2.62222
O     -0.67378    -2.98987     1.42322
H      0.85560    -2.30458     2.65295
H     -1.13265    -2.11961     1.43608
H     -0.56687    -2.94744     3.49250
H      0.54774    -4.05282     2.67452
C     -0.21554    -3.48900    -1.88228
O      0.62345    -2.91955    -0.89089
H      0.20870    -3.28269    -2.86416
H      0.18218    -3.04628    -0.01811
H     -0.28372    -4.57028    -1.75659
H     -1.22405    -3.06994    -1.83691
C     -0.21062     1.61922    -3.11212
O      0.54294     1.84960    -1.93598
H     -1.06151     0.96299    -2.91103
H      0.94511     0.98979    -1.68507
H     -0.58366     2.56856    -3.49404
H      0.40451     1.15664    -3.88519
C     -1.89132    -0.19102    -0.06299
O     -1.67831    -0.53277     1.30235
H     -2.92596    -0.39628    -0.33070
H     -1.23206     0.22864     1.72635
H     -1.68465     0.86114    -0.24527
H     -1.24569    -0.77861    -0.71602
C      1.04922     1.30722     2.25035
O     -0.32548     1.63360     2.12578
H      1.63258     2.18136     2.53977
H     -0.38447     2.35325     1.46296
H      1.15619     0.55321     3.03080
H      1.44839     0.90788     1.31645
C     -1.37178     4.20326    -0.39140
O     -0.34093     3.35370     0.07161
H     -2.22927     3.62188    -0.74246
H      0.01621     2.86486    -0.69874
H     -1.69348     4.84302     0.42733
H     -1.02314     4.83484    -1.21151
