 60
-1158.0942944618796
C      4.23297    -2.20646     1.07540
O      3.32438    -1.24981     0.56048
H      4.90030    -1.75440     1.81226
H      2.81421    -0.90242     1.32251
H      3.70258    -3.03821     1.54437
H      4.83899    -2.59815     0.25779
C     -0.25297    -0.10744    -3.22225
O     -0.77203     0.28487    -1.95395
H     -0.92521    -0.84943    -3.65106
H     -0.20654     1.02265    -1.60718
H     -0.21588     0.74845    -3.89654
H      0.74406    -0.53275    -3.12540
C     -0.16568    -2.56522    -0.31036
O     -1.16816    -1.56563    -0.13011
H     -0.29168    -3.06860    -1.26646
H     -1.06240    -0.88974    -0.83991
H      0.83606    -2.14160    -0.26209
H     -0.27774    -3.29751     0.48626
C     -4.62627    -0.91124    -0.01040
O     -3.81470    -1.68824     0.85274
H     -4.18406     0.06970    -0.19775
H     -2.95962    -1.80626     0.42423
H     -4.78674    -1.40484    -0.97304
H     -5.59275    -0.76840     0.46950
C     -1.78907     2.62430     1.20102
O     -0.46496     2.18222     1.49209
H     -2.34566     1.88263     0.62564
H     -0.52852     1.27258     1.83031
H     -2.33368     2.85156     2.11839
H     -1.73202     3.54170     0.61717
C      3.97071    -2.00717    -2.69602
O      2.81042    -1.44405    -2.12120
H      4.09239    -3.05738    -2.41300
H      2.97649    -1.35088    -1.16945
H      3.88171    -1.95797    -3.78089
H      4.87614    -1.46661    -2.40400
C     -2.63488     3.06928    -2.56329
O     -3.25486     1.90431    -2.05512
H     -3.26809     3.92413    -2.32882
H     -2.59927     1.20108    -2.07715
H     -1.65087     3.23715    -2.12024
H     -2.51941     3.01809    -3.64922
C      2.11281     1.82849    -0.78791
O      0.73830     2.19872    -0.90322
H      2.30154     1.26823     0.12569
H      0.39398     2.32279     0.00562
H      2.39468     1.20988    -1.63783
H      2.74086     2.72034    -0.79447
C      2.20379     0.89150     3.27143
O      1.93571    -0.34296     2.62068
H      1.66918     0.94824     4.22062
H      0.96551    -0.44218     2.55947
H      3.27233     0.94514     3.47117
H      1.91231     1.73973     2.65122
C     -1.74496    -0.60645     3.24845
O     -0.71036    -0.46783     2.27575
H     -1.60721     0.16432     4.00480
H     -0.98142    -0.93039     1.45272
H     -2.72168    -0.49137     2.78716
H     -1.67970    -1.58254     3.72627
