 42
-810.662107632624
C     -2.91167     3.15458    -0.34155
O     -2.57024     1.78730    -0.28048
H     -3.82906     3.30836     0.22688
H     -1.71859     1.65484    -0.72716
H     -2.13173     3.78701     0.09517
H     -3.08263     3.49076    -1.36975
C      3.71155    -0.33986     1.63797
O      2.69118    -0.00277     0.71743
H      4.09324     0.57383     2.09054
H      2.53518    -0.78592     0.14966
H      3.33133    -0.99135     2.42927
H      4.53873    -0.84816     1.14026
C      1.96601    -3.35310     0.11544
O      2.10240    -2.19187    -0.69654
H      1.45129    -4.14536    -0.42833
H      1.23258    -2.01098    -1.08877
H      2.96267    -3.70361     0.37634
H      1.41342    -3.13455     1.03144
C      0.25261     1.71549    -2.91510
O     -0.16456     1.33208    -1.61487
H      1.16508     2.30951    -2.85335
H     -0.04630     0.37366    -1.50819
H      0.44337     0.84497    -3.54577
H     -0.52670     2.32013    -3.37965
C     -1.72745    -1.51245    -1.94561
O     -0.52370    -1.38807    -1.20202
H     -2.26318    -2.41727    -1.65979
H     -0.78270    -1.35266    -0.23812
H     -2.37437    -0.65106    -1.77807
H     -1.48172    -1.57183    -3.00418
C     -2.49087    -0.96341     1.72525
O     -1.15138    -1.15470     1.28999
H     -3.00500    -1.92345     1.71741
H     -0.61292    -0.38257     1.59728
H     -2.51245    -0.57263     2.74340
H     -3.01282    -0.26336     1.07385
C      0.12424     2.19813     1.66397
O      0.43713     0.83105     1.89912
H     -0.92932     2.35965     1.88078
H      1.29067     0.61256     1.46445
H      0.70962     2.84053     2.32434
H      0.31393     2.47477     0.62848
