 42
-810.6639438848972
C     -2.82726    -1.72224    -0.80573
O     -1.74870    -0.81868    -0.95460
H     -3.75896    -1.17088    -0.90698
H     -0.89551    -1.33678    -0.86317
H     -2.78423    -2.49221    -1.57576
H     -2.79526    -2.20010     0.17478
C      2.87693    -1.02476     1.78846
O      1.53745    -1.49985     1.77903
H      3.17082    -0.71371     2.79189
H      1.00372    -0.89081     2.33013
H      3.53608    -1.83250     1.47360
H      2.98514    -0.18039     1.10674
C      1.52220    -1.92200    -1.55551
O      0.48101    -2.03731    -0.59437
H      2.20736    -2.76598    -1.47598
H      0.86519    -1.85803     0.29819
H      1.08445    -1.94210    -2.55361
H      2.07543    -0.99398    -1.42906
C     -0.11507     0.72709    -3.63815
O     -1.14666     1.22854    -2.81166
H      0.12861     1.48510    -4.38221
H     -1.40669     0.51889    -2.21106
H      0.78474     0.51084    -3.05827
H     -0.42405    -0.18010    -4.16772
C     -1.89171     2.44587     0.38180
O     -1.27417     1.21975     0.76202
H     -1.37384     3.24945     0.90083
H     -1.59423     0.50416     0.17731
H     -1.80486     2.60152    -0.69288
H     -2.94263     2.45512     0.67282
C     -1.12720    -0.38632     3.74660
O     -0.08985     0.25001     3.01655
H     -0.71427    -0.74607     4.68610
H     -0.50559     0.70145     2.26268
H     -1.93433     0.31500     3.96428
H     -1.53860    -1.23312     3.19114
C      1.68992     2.51060    -1.23958
O      1.58769     1.31108    -0.48561
H      1.82183     3.38463    -0.59469
H      0.74904     1.29860    -0.01037
H      2.56585     2.43463    -1.88484
H      0.80921     2.65998    -1.86548
