 36
-694.8510349488365
C      1.80672     3.63625     0.40495
O      1.97322     2.88215     1.59080
H      0.80788     4.07587     0.33748
H      1.21378     2.29209     1.65862
H      2.53794     4.44268     0.41378
H      1.97675     3.02434    -0.48400
C      0.86314    -2.18815    -2.84497
O      0.66766    -2.01560    -1.44825
H     -0.02704    -2.64833    -3.27450
H      1.21906    -1.24924    -1.17237
H      1.03107    -1.22788    -3.33510
H      1.71865    -2.83913    -3.03331
C      3.22453     0.22283    -0.08582
O      1.91571     0.18830    -0.63634
H      3.32059    -0.47611     0.74775
H      1.30421     0.57990     0.01214
H      3.92273    -0.06782    -0.86753
H      3.47462     1.22203     0.26150
C     -0.02881    -0.38192     2.01730
O      0.01072     0.83970     1.27839
H      0.67132    -0.30526     2.84768
H     -0.87574     0.94792     0.86672
H     -1.03209    -0.55090     2.40337
H      0.24840    -1.22961     1.38875
C     -2.35031    -2.87396    -0.11701
O     -1.91246    -1.73740    -0.83689
H     -2.04458    -3.79682    -0.61059
H     -0.96475    -1.86871    -1.06726
H     -1.94421    -2.87315     0.89857
H     -3.43737    -2.85905    -0.05827
C     -3.68502     0.68937     0.79052
O     -2.38740     0.64289     0.22610
H     -4.43454     0.34620     0.07509
H     -2.29911    -0.22476    -0.22807
H     -3.74554     0.06064     1.68352
H     -3.91290     1.71646     1.06483
