 36
-694.8529591054353
C     -1.02247     1.75483    -1.94012
O      0.22888     1.08862    -1.98426
H     -1.43974     1.77219    -2.94590
H      0.66521     1.23055    -1.12390
H     -1.72002     1.24343    -1.27370
H     -0.90652     2.78567    -1.60144
C      2.51787     2.19863     0.45934
O      1.35908     1.38273     0.44383
H      2.32326     3.08974    -0.13455
H      1.57271     0.53307     0.92006
H      2.75664     2.50026     1.47959
H      3.36849     1.66625     0.03357
C      1.00472    -0.94390     2.97463
O      1.55396    -0.88433     1.66565
H      1.61668    -0.33024     3.63235
H      1.04438    -1.52168     1.10797
H     -0.02100    -0.57578     2.99628
H      1.01961    -1.96736     3.35015
C     -1.13723    -1.81724    -3.10411
O      0.06692    -1.55856    -2.40724
H     -0.93699    -2.03898    -4.15374
H      0.18079    -0.58690    -2.36667
H     -1.63166    -2.68149    -2.65959
H     -1.81692    -0.96578    -3.04517
C     -1.78535     2.38890     2.04737
O     -1.40495     1.18688     1.40157
H     -1.12978     2.61925     2.89347
H     -0.49505     1.27639     1.08623
H     -1.77477     3.24067     1.35957
H     -2.79980     2.26349     2.42468
C     -1.36063    -2.21119     0.51423
O     -0.00533    -2.38286     0.12764
H     -1.72416    -1.21153     0.26956
H      0.06300    -2.16393    -0.82928
H     -1.99860    -2.95687     0.04014
H     -1.43893    -2.35235     1.59130
