 36
-694.8445752671304
C     -0.39964     2.63488    -2.34537
O     -0.04251     3.74577    -1.52590
H     -1.27278     2.17107    -1.89567
H      0.58636     4.28901    -2.00045
H     -0.66285     2.94834    -3.35818
H      0.40263     1.89923    -2.38353
C      2.36711     1.65123    -0.11083
O      1.36016     0.68447    -0.34901
H      1.98557     2.62771    -0.39675
H      1.73266    -0.20627    -0.14975
H      2.64570     1.68128     0.94581
H      3.26473     1.43831    -0.69492
C      2.17088    -1.86271     1.73100
O      2.20208    -1.74908     0.30922
H      2.83432    -2.65995     2.06533
H      1.48792    -2.33211    -0.02565
H      2.51191    -0.92176     2.16391
H      1.15754    -2.06564     2.07927
C     -0.50257    -2.29298    -1.63050
O     -0.14531    -2.87017    -0.38324
H     -0.30529    -1.21825    -1.64636
H     -0.72553    -2.47199     0.29636
H      0.09020    -2.77168    -2.40832
H     -1.55949    -2.45562    -1.84856
C     -1.38605     2.17804     1.14493
O     -1.19530     0.94846     0.46625
H     -1.26741     3.01680     0.46132
H     -0.27298     0.91860     0.13231
H     -2.39642     2.18914     1.55114
H     -0.67925     2.28987     1.97095
C     -3.03030    -1.70999     1.64358
O     -1.65520    -1.48305     1.41069
H     -3.61384    -1.57759     0.72877
H     -1.55169    -0.54808     1.12585
H     -3.16072    -2.72992     2.00035
H     -3.41801    -1.02452     2.40144
