 60
-1158.0996996591714
C      4.72445    -2.28408    -0.03100
O      3.83801    -1.22038     0.25372
H      4.20690    -3.08802    -0.55886
H      3.14685    -1.56753     0.86057
H      5.52753    -1.90594    -0.66162
H      5.15616    -2.69210     0.88510
C      2.08583    -0.83439     2.97741
O      1.98821    -1.88209     2.01352
H      1.70831    -1.16618     3.94559
H      1.05377    -2.17606     2.00727
H      3.13678    -0.56941     3.08240
H      1.53349     0.04573     2.64987
C      1.84705    -0.82222    -2.32200
O      0.59899    -1.14464    -1.72433
H      2.53603    -1.64698    -2.15677
H     -0.09338    -0.63099    -2.17776
H      1.73821    -0.67675    -3.39877
H      2.28278     0.08145    -1.89191
C     -3.00715    -1.16233    -0.14813
O     -2.47211    -0.64451     1.06900
H     -3.71645    -0.46308    -0.59010
H     -1.57592    -0.28054     0.86804
H     -2.22308    -1.36353    -0.87505
H     -3.53453    -2.08822     0.07559
C      4.72613     2.08397     0.29457
O      3.43639     1.50476     0.23369
H      5.51203     1.32352     0.31189
H      3.53532     0.54090     0.23279
H      4.89120     2.72588    -0.57453
H      4.82320     2.69521     1.19609
C     -0.67506    -3.56420     0.83564
O     -0.58255    -2.70908     1.97323
H     -0.40982    -3.03825    -0.08233
H     -1.32353    -2.08988     1.95142
H      0.01695    -4.39187     0.97961
H     -1.67904    -3.97824     0.73658
C     -2.24641    -0.18434    -3.77171
O     -1.44192     0.37191    -2.74701
H     -3.10908    -0.70909    -3.35200
H     -1.99522     0.99966    -2.23722
H     -2.61071     0.58738    -4.45301
H     -1.65132    -0.89627    -4.34320
C     -2.86093     3.46540    -1.75643
O     -3.02419     2.10117    -1.40819
H     -3.70158     4.06182    -1.39853
H     -3.24408     2.05620    -0.45228
H     -1.93917     3.87382    -1.33310
H     -2.81461     3.55456    -2.84118
C      0.13705     1.59259     0.10029
O     -0.06431     0.28575     0.64240
H     -0.73337     2.20465     0.32022
H      0.44393    -0.35470     0.11203
H      1.01364     2.04612     0.55480
H      0.28235     1.56145    -0.97660
C     -2.86323     2.63349     2.25093
O     -3.47404     1.86220     1.22372
H     -1.97236     2.14001     2.64063
H     -3.24706     0.92412     1.37238
H     -2.57502     3.60304     1.84544
H     -3.56246     2.79582     3.07048
