 60
-1158.0888299144683
C      1.17637    -1.39833    -2.41664
O      0.39847    -0.99077    -1.29736
H      0.53149    -1.75873    -3.21971
H     -0.11287    -1.78107    -0.99503
H      1.74369    -0.55112    -2.79179
H      1.87394    -2.18828    -2.13672
C      1.01614    -0.33455     3.36609
O      1.59863     0.91407     3.04917
H      1.11520    -0.48734     4.43915
H      1.40562     1.08358     2.12001
H     -0.04489    -0.36510     3.11540
H      1.51415    -1.16025     2.85284
C      5.16156     0.67604    -2.81838
O      3.89385     0.70444    -2.18955
H      5.42281    -0.33125    -3.15472
H      3.95147     0.25878    -1.33465
H      5.11783     1.32964    -3.68865
H      5.95226     1.03867    -2.15552
C     -1.30677    -4.00717    -1.53610
O     -1.01831    -3.04481    -0.53258
H     -1.41241    -5.00057    -1.09869
H     -1.86167    -2.83159    -0.07489
H     -2.22245    -3.75437    -2.07281
H     -0.48077    -4.03140    -2.24616
C      1.11420     2.11269    -0.47981
O      0.81593     0.94681     0.30556
H      0.19625     2.56295    -0.84775
H      0.65091     0.19225    -0.33190
H      1.64494     2.82330     0.15175
H      1.74911     1.85086    -1.32093
C     -2.88184    -2.20510     2.14339
O     -3.23826    -2.27572     0.76587
H     -2.17306    -3.00313     2.36413
H     -3.48279    -1.36859     0.50498
H     -2.41365    -1.24536     2.36698
H     -3.76280    -2.33234     2.77378
C     -1.47404     2.71849     2.11073
O     -1.51856     1.36872     1.67282
H     -0.60597     2.89012     2.74457
H     -0.68887     1.20011     1.18242
H     -1.44264     3.40766     1.26624
H     -2.36824     2.92410     2.69572
C      4.43672     0.01151     1.56602
O      3.63677    -0.43126     0.47316
H      5.39124    -0.50836     1.50612
H      2.73113    -0.13322     0.60421
H      4.61550     1.08820     1.50954
H      3.97017    -0.21580     2.52193
C     -1.51182     1.49332    -2.88020
O     -2.03729     1.99367    -1.66082
H     -2.30067     1.10428    -3.53155
H     -2.45900     1.28074    -1.17123
H     -1.03232     2.32244    -3.40062
H     -0.76740     0.71349    -2.71313
C     -4.70509     1.21836     0.53067
O     -3.56626     0.39315     0.36099
H     -5.02899     1.22447     1.57337
H     -2.85224     0.77530     0.92192
H     -4.49054     2.24239     0.22199
H     -5.50696     0.82637    -0.08933
