 36
-694.8444993798258
C      1.88296    -0.26787    -0.17371
O      0.71183     0.51138     0.03913
H      1.92258    -0.64259    -1.19476
H     -0.05825    -0.12146     0.03169
H      2.74987     0.36378     0.01158
H      1.91628    -1.11281     0.51499
C      1.57396     2.90870    -2.31274
O      0.47986     2.02111    -2.19404
H      1.57381     3.31590    -3.32227
H      0.51502     1.64311    -1.29949
H      1.49292     3.73657    -1.60367
H      2.52606     2.39866    -2.14350
C     -0.56651    -2.30601     3.56969
O     -1.24539    -1.23817     2.93093
H     -1.16742    -3.20626     3.45890
H     -0.70537    -0.43370     3.06074
H      0.41464    -2.47510     3.11774
H     -0.43114    -2.10141     4.63188
C     -0.29658    -0.73981    -4.57439
O      0.41032    -0.63977    -3.35061
H      0.15351    -0.11878    -5.35431
H      0.38686     0.28130    -3.05596
H     -0.26204    -1.77921    -4.90017
H     -1.34460    -0.44793    -4.45998
C     -1.37037    -2.37477    -0.49913
O     -1.21830    -1.16799     0.23798
H     -0.95615    -2.22898    -1.49496
H     -1.36584    -1.33737     1.19342
H     -0.84485    -3.19823    -0.01065
H     -2.42524    -2.63497    -0.59071
C     -0.41503     2.13791     3.05622
O      0.35280     0.96383     2.81281
H     -0.85876     2.05379     4.04729
H      0.62247     0.97009     1.88030
H      0.21416     3.02890     3.03581
H     -1.21440     2.24624     2.31954
