 60
-1158.0956985056353
C      5.79345     1.93418    -1.57789
O      4.44550     1.61501    -1.28688
H      5.85866     2.89789    -2.09001
H      4.16726     0.89100    -1.86402
H      6.36103     1.99897    -0.64769
H      6.26291     1.17713    -2.21187
C      1.39220     3.33975    -0.77632
O      0.59622     2.15970    -0.81637
H      2.43898     3.05255    -0.74710
H     -0.34613     2.43225    -0.76642
H      1.21185     3.95713    -1.65945
H      1.15799     3.92393     0.11585
C      3.85005    -1.93169    -2.75333
O      3.48956    -0.56070    -2.75232
H      3.33179    -2.47865    -1.96425
H      2.52779    -0.49539    -2.66166
H      3.62371    -2.39267    -3.71744
H      4.92346    -1.99550    -2.57992
C     -0.50164    -0.37155    -2.42492
O      0.83806    -0.12180    -2.01589
H     -0.68516     0.08794    -3.39624
H      0.84978     0.78227    -1.60308
H     -0.65276    -1.44799    -2.50519
H     -1.21021     0.03346    -1.70305
C      2.62132    -1.01536     0.65765
O      1.58753    -1.78180     0.04214
H      2.24493    -0.05135     1.00515
H      1.27932    -1.28015    -0.73360
H      2.98640    -1.57101     1.52044
H      3.44980    -0.84597    -0.02641
C     -3.51331    -2.62779     4.16627
O     -3.99029    -1.79696     3.12481
H     -3.40830    -2.07853     5.10638
H     -3.34572    -1.09059     3.00185
H     -4.23489    -3.43073     4.31580
H     -2.54631    -3.07296     3.91893
C     -4.63005     0.24873     0.40325
O     -3.24508     0.50099     0.20880
H     -5.03106     0.86540     1.20956
H     -2.78227     0.20729     1.01720
H     -5.15318     0.48797    -0.52166
H     -4.79830    -0.80038     0.64161
C     -0.87631     0.97912     2.54840
O     -1.75722    -0.12847     2.36728
H     -0.30609     0.86332     3.46865
H     -1.18351    -0.93320     2.24766
H     -0.18697     1.06217     1.70690
H     -1.46691     1.89108     2.61248
C     -1.12291    -3.30029     1.37667
O     -0.31239    -2.24865     1.89650
H     -0.93253    -4.21864     1.93319
H      0.42762    -2.11130     1.26436
H     -2.17753    -3.04230     1.47955
H     -0.90108    -3.47402     0.32342
C     -2.65997     3.02810    -1.98147
O     -2.04096     2.66876    -0.75852
H     -3.69837     3.31994    -1.82078
H     -2.54416     1.90670    -0.39511
H     -2.12673     3.87400    -2.41341
H     -2.63796     2.19783    -2.69239
