 54
-1042.2791725564714
C      2.95979    -2.17419     2.79651
O      2.40340    -1.55873     1.64918
H      3.10924    -1.44876     3.60036
H      3.06275    -0.90491     1.32633
H      2.27566    -2.94617     3.14667
H      3.91860    -2.64126     2.56572
C     -0.97883    -1.14562     1.87073
O      0.11582    -0.26194     2.06849
H     -0.92566    -1.62895     0.89461
H      0.94115    -0.76621     1.89105
H     -0.98753    -1.91528     2.64549
H     -1.91121    -0.58576     1.93083
C     -3.67997    -3.15027     0.06958
O     -3.65965    -3.17190    -1.35386
H     -3.62458    -2.10915     0.37747
H     -3.73678    -4.07935    -1.64771
H     -4.59896    -3.58486     0.46791
H     -2.82245    -3.67578     0.49711
C      2.66454    -0.34400    -2.04403
O      2.97509     0.97969    -1.62112
H      3.59523    -0.83024    -2.32728
H      2.14719     1.48546    -1.59111
H      2.18936    -0.91939    -1.24627
H      1.99860    -0.33232    -2.90763
C     -0.58589     2.77154    -2.12323
O      0.40027     2.04046    -1.41610
H     -0.46259     3.84216    -1.96037
H      0.21517     2.16872    -0.44603
H     -0.46958     2.56796    -3.18600
H     -1.59096     2.48238    -1.81411
C      3.67484     1.59348     1.63820
O      3.96017     0.45906     0.82901
H      2.62668     1.88844     1.56379
H      3.72538     0.70091    -0.09178
H      3.89992     1.34170     2.67386
H      4.29961     2.43861     1.34771
C     -4.07608     0.36857    -1.17047
O     -3.01746     0.54610    -0.24978
H     -3.92287     0.96421    -2.07650
H     -2.23287     0.07243    -0.56162
H     -4.19671    -0.67653    -1.46159
H     -4.99919     0.71421    -0.70379
C     -0.94224    -1.05820    -2.78058
O     -0.56331    -0.63096    -1.47948
H     -1.84650    -1.66025    -2.71398
H     -0.12656     0.23431    -1.54648
H     -1.13588    -0.21308    -3.44747
H     -0.16231    -1.67681    -3.22877
C     -1.22264     2.79960     1.67180
O     -0.07505     2.18352     1.10758
H     -1.15624     2.81527     2.76088
H      0.01029     1.28283     1.50727
H     -1.27852     3.83018     1.32237
H     -2.12927     2.27246     1.37806
