 60
-1158.1013091315142
C      4.34640     2.42010    -1.32583
O      2.98357     2.14289    -1.59892
H      4.83508     1.56610    -0.84894
H      2.45296     2.32635    -0.80069
H      4.84836     2.62827    -2.26734
H      4.44646     3.28980    -0.67413
C      1.43523    -2.91667     3.39092
O      1.03617    -1.75477     2.67157
H      2.15698    -2.64918     4.16411
H      1.44975    -1.81476     1.78374
H      0.56316    -3.36989     3.86575
H      1.88574    -3.65023     2.72157
C      0.17034     1.74839    -3.08765
O      1.13946     0.71542    -2.95405
H      0.01658     2.26626    -2.13893
H      1.93069     1.14412    -2.57977
H      0.47522     2.47629    -3.83982
H     -0.77265     1.30000    -3.40237
C     -3.80676     0.10978     0.86982
O     -2.77939     0.58211     1.72683
H     -4.52011    -0.50393     1.42142
H     -2.33900    -0.20760     2.12334
H     -4.34724     0.96223     0.46064
H     -3.40061    -0.47559     0.04360
C     -0.52642    -0.43429    -0.51141
O      0.13635    -1.27607    -1.46396
H      0.18358     0.01412     0.17711
H      0.50639    -0.67216    -2.14542
H     -1.06720     0.36639    -1.00858
H     -1.23802    -1.01837     0.05915
C     -1.95707    -2.82872     2.09519
O     -1.60243    -1.57695     2.67057
H     -2.81348    -2.70581     1.43339
H     -0.62279    -1.56727     2.72820
H     -1.13045    -3.24299     1.51929
H     -2.22930    -3.53210     2.88180
C     -2.85383    -2.02940    -2.94544
O     -2.47146    -2.57705    -1.69280
H     -2.45809    -1.01952    -3.08318
H     -1.52336    -2.42885    -1.62334
H     -2.50817    -2.65177    -3.77362
H     -3.94120    -1.97994    -2.97755
C      3.13770    -1.05896    -0.03651
O      2.10416    -1.99824     0.22445
H      2.80555    -0.03197     0.11333
H      1.44326    -1.90676    -0.48718
H      3.95206    -1.26329     0.65743
H      3.51374    -1.15550    -1.05475
C      1.66879     1.95989     1.84414
O      1.29464     2.37418     0.54085
H      1.26386     2.63278     2.60071
H      0.31542     2.43926     0.53598
H      1.32178     0.94740     2.05639
H      2.75672     1.97799     1.92384
C     -2.11256     3.69298     0.60335
O     -1.35743     2.49295     0.57477
H     -3.06581     3.56498     0.08623
H     -1.87993     1.80420     1.04857
H     -2.31226     4.00887     1.62851
H     -1.54804     4.47328     0.09485
