 60
-1158.1025369256272
C      2.82368     1.84414     2.16947
O      2.09110     1.92536     0.96632
H      3.25039     0.85139     2.32852
H      1.54621     1.13003     0.87389
H      3.63941     2.56693     2.13096
H      2.20279     2.08731     3.03780
C      3.68739    -2.11315    -3.08380
O      2.62145    -2.04230    -2.15992
H      4.50075    -1.43886    -2.80249
H      2.11332    -1.22082    -2.33904
H      4.07198    -3.13128    -3.10109
H      3.35984    -1.85230    -4.09133
C     -0.42800     2.83997    -1.11010
O     -0.52029     1.42067    -1.06327
H     -1.37887     3.30397    -0.84958
H     -0.96458     1.15803    -0.23161
H      0.34760     3.19565    -0.43367
H     -0.16963     3.13183    -2.12741
C      2.28723     1.32643    -2.71573
O      1.34269     0.27859    -2.56899
H      2.03515     1.95130    -3.57559
H      0.60734     0.63491    -2.02361
H      2.33583     1.95258    -1.82287
H      3.27325     0.89715    -2.89486
C      4.21539    -1.21454     0.52010
O      3.00031    -1.94979     0.46777
H      4.05433    -0.15676     0.30007
H      2.85330    -2.16146    -0.48106
H      4.63444    -1.31386     1.51956
H      4.93627    -1.61017    -0.19368
C     -3.77689    -1.73274     2.11456
O     -3.86873    -1.51408     0.71555
H     -3.05673    -1.05019     2.57306
H     -2.95325    -1.59924     0.35928
H     -4.75572    -1.56465     2.56206
H     -3.46898    -2.75786     2.32861
C     -4.36939     1.36290    -1.00999
O     -4.42229     1.09380     0.38559
H     -4.65836     2.39958    -1.16768
H     -4.44636     0.11770     0.48850
H     -3.36116     1.21027    -1.40499
H     -5.05874     0.72166    -1.56108
C     -1.16359    -1.76889    -1.50360
O     -1.37711    -1.65634    -0.10133
H     -0.14986    -2.09792    -1.72716
H     -0.61437    -1.21036     0.31155
H     -1.86260    -2.50713    -1.89290
H     -1.34948    -0.81817    -2.00579
C      0.47373    -0.86973     2.52552
O      0.83193    -0.65910     1.16958
H      0.22144    -1.91580     2.70766
H      1.63676    -1.20015     0.95592
H      1.29310    -0.59850     3.19179
H     -0.39211    -0.25080     2.75372
C     -1.55456     2.32170     2.17023
O     -1.89982     1.25783     1.29418
H     -1.85638     2.09538     3.19555
H     -2.86088     1.29991     1.08144
H     -0.47491     2.47017     2.15793
H     -2.03908     3.25204     1.86868
