 36
-694.8594442911555
C      1.34819    -0.96662    -2.93049
O      1.88924    -0.69380    -1.64933
H      1.42657    -2.02797    -3.16845
H      1.52265    -1.37663    -1.04182
H      0.29535    -0.67596    -2.97442
H      1.90574    -0.39907    -3.67336
C      2.59418     1.96036     0.14963
O      1.59151     1.80984    -0.84131
H      2.76949     3.02147     0.31292
H      1.69733     0.90071    -1.19967
H      2.27827     1.50008     1.08896
H      3.52580     1.49258    -0.16834
C      1.56801    -2.83348     1.06640
O      0.78803    -2.49574    -0.07050
H      1.12786    -2.41650     1.97292
H     -0.12258    -2.30423     0.24994
H      1.64206    -3.91740     1.17111
H      2.57196    -2.42479     0.94080
C     -1.56572     2.59648    -1.27513
O     -0.86510     2.41749    -0.05441
H     -2.46027     3.18554    -1.08435
H      0.06852     2.23344    -0.30032
H     -0.94624     3.12174    -2.00163
H     -1.85501     1.63182    -1.69990
C     -2.67945    -2.20635    -0.03518
O     -1.61310    -1.87869     0.84263
H     -3.07200    -1.31180    -0.52038
H     -1.76611    -0.95860     1.15367
H     -2.30796    -2.88567    -0.80324
H     -3.48614    -2.70020     0.50913
C     -1.36719     0.93209     2.85669
O     -1.93709     0.64486     1.59000
H     -1.97316     0.46285     3.62919
H     -1.58631     1.32257     0.96936
H     -0.34634     0.54611     2.91898
H     -1.34178     2.00680     3.03600
