 48
-926.4743368903812
C     -1.39493     1.99790     2.56064
O     -1.30191     0.58747     2.41284
H     -0.74165     2.29891     3.37816
H     -1.95088     0.29224     1.75060
H     -1.08828     2.51349     1.65059
H     -2.41518     2.29121     2.81441
C      0.05396     0.19294    -3.25318
O      0.65740    -0.70832    -2.33386
H     -0.97556    -0.11912    -3.43399
H      1.27584    -0.19383    -1.78047
H      0.04369     1.20862    -2.85844
H      0.58967     0.17639    -4.20403
C     -0.42014    -3.01256    -0.15719
O     -1.13654    -2.02527    -0.89004
H      0.33365    -2.55370     0.48175
H     -0.48421    -1.55782    -1.46836
H     -1.12879    -3.56425     0.45875
H      0.06315    -3.71467    -0.83647
C     -2.75095     2.82558    -0.80869
O     -1.69312     1.88965    -0.78557
H     -3.20516     2.95289     0.17891
H     -2.05934     1.03809    -0.50019
H     -2.35905     3.79048    -1.13083
H     -3.54049     2.53106    -1.50562
C     -4.11549    -0.79980    -0.02253
O     -2.78112    -0.44795     0.28901
H     -4.78046    -0.02451     0.35243
H     -2.18016    -1.12840    -0.12869
H     -4.24571    -0.88795    -1.10261
H     -4.37782    -1.74967     0.44356
C      1.79749     2.19078    -0.62453
O      2.07915     0.79876    -0.60611
H      0.72858     2.37317    -0.51199
H      1.70385     0.43878     0.23164
H      2.33910     2.70135     0.17359
H      2.13335     2.59486    -1.57839
C      1.94997    -0.42136     2.72565
O      1.08625    -0.22706     1.61783
H      1.57450    -1.21104     3.37722
H      0.19981     0.04109     1.95010
H      2.93812    -0.70775     2.36953
H      2.04391     0.49295     3.31542
C      3.87657    -1.92326    -0.30931
O      4.50798    -0.70993     0.04213
H      4.46380    -2.74252     0.10384
H      3.94193    -0.00034    -0.27491
H      2.86229    -1.98575     0.09182
H      3.82187    -2.05120    -1.39354
