 48
-926.4796358086975
C     -0.55473     4.02691    -1.82252
O     -0.33599     2.70953    -1.35559
H     -0.61702     4.73882    -0.99623
H      0.50054     2.71959    -0.83992
H      0.25257     4.34000    -2.48841
H     -1.48977     4.05210    -2.38002
C     -1.43594     0.93244     1.30062
O     -2.09147     1.25188     0.07396
H     -2.03479     0.20397     1.84426
H     -1.50327     1.84818    -0.43264
H     -0.44653     0.50807     1.13914
H     -1.33300     1.82569     1.91753
C     -2.39796    -0.39078    -2.71713
O     -2.60108    -0.87977    -1.39769
H     -1.84745    -1.13346    -3.29561
H     -2.53687    -0.09142    -0.80577
H     -3.35512    -0.21120    -3.20596
H     -1.82814     0.53947    -2.70402
C      1.07908    -0.77640    -1.49480
O      1.31914    -1.43168    -0.25155
H      0.48287     0.13020    -1.38053
H      0.50122    -1.90719    -0.02686
H      2.03749    -0.50408    -1.93403
H      0.56049    -1.43697    -2.18896
C     -1.02928    -3.90994    -0.93456
O     -1.12797    -2.68532    -0.22674
H     -1.95690    -4.12711    -1.46153
H     -1.72912    -2.06300    -0.71383
H     -0.21201    -3.87625    -1.65749
H     -0.83688    -4.70894    -0.22116
C      0.30941    -3.27328     2.73854
O     -0.68761    -2.30866     2.47495
H      1.18108    -3.14973     2.08835
H     -1.01646    -2.48597     1.58567
H      0.63986    -3.15663     3.77106
H     -0.06827    -4.29264     2.61579
C      2.10701     0.18878     2.66560
O      2.49597     0.41159     1.31525
H      1.34178    -0.58581     2.73608
H      2.17123    -0.34134     0.78096
H      2.97780    -0.10232     3.25328
H      1.71236     1.11588     3.08586
C      3.06424     3.18379    -0.46613
O      1.87256     2.67159     0.10603
H      3.73013     3.56438     0.30951
H      2.11266     1.85851     0.61112
H      3.59255     2.41715    -1.03761
H      2.81034     4.00402    -1.13754
