 36
-694.8539297279468
C     -1.02276     0.80967    -3.50101
O     -0.28991     0.70997    -2.29279
H     -2.06729     0.52937    -3.34711
H     -0.89713     0.91773    -1.55421
H     -0.98163     1.82657    -3.89565
H     -0.58870     0.13564    -4.23883
C      1.39959     2.50958     0.77155
O      0.92993     2.04847     2.02288
H      2.48526     2.39847     0.70241
H      0.53059     1.18058     1.90279
H      0.93946     1.98550    -0.07097
H      1.16982     3.57203     0.68080
C     -0.85923    -2.42411    -1.63168
O      0.42219    -1.81323    -1.73052
H     -0.79459    -3.26468    -0.94049
H      0.27604    -0.87754    -1.98305
H     -1.60088    -1.71578    -1.26086
H     -1.17917    -2.80261    -2.60425
C      2.71143    -1.19809     0.65677
O      1.49817    -1.94484     0.68407
H      3.37571    -1.56740    -0.12321
H      1.19427    -2.02226    -0.25182
H      2.51342    -0.14057     0.47360
H      3.20383    -1.30459     1.62006
C     -2.25999     2.13076     0.47812
O     -1.81615     0.90856    -0.08648
H     -1.45389     2.64653     0.99851
H     -1.36091     0.39247     0.60492
H     -2.62492     2.76509    -0.32903
H     -3.08412     1.96215     1.17535
C     -0.82776    -0.91324     2.99429
O     -0.37866    -0.46660     1.72693
H     -1.26790    -1.90735     2.91453
H      0.31408    -1.09627     1.39006
H      0.00259    -0.94297     3.70070
H     -1.57983    -0.21762     3.36118
