 36
-694.8478560241385
C     -2.46013     2.23961    -3.12053
O     -1.15703     1.91584    -2.68087
H     -3.18155     2.21349    -2.29688
H     -1.11374     0.96346    -2.53526
H     -2.44145     3.25106    -3.52531
H     -2.80815     1.55930    -3.90366
C      2.91749     0.09357    -0.59620
O      1.55925    -0.30390    -0.46820
H      3.42335     0.05260     0.36888
H      1.49454    -0.96148     0.26786
H      3.44012    -0.55535    -1.30029
H      2.94437     1.11645    -0.96574
C      0.12272    -2.89984     1.16266
O      1.13027    -1.96033     1.53224
H     -0.36527    -2.59601     0.23480
H      0.74760    -1.38991     2.23611
H      0.58630    -3.87219     1.01590
H     -0.63457    -2.98089     1.94219
C     -1.57282     1.66024     0.52870
O     -0.25092     1.54773     1.05883
H     -1.65629     2.55171    -0.08931
H      0.34195     1.22811     0.36735
H     -1.83615     0.78379    -0.06330
H     -2.26099     1.74525     1.36889
C     -0.37099    -1.85934    -2.93936
O     -0.67550    -0.84077    -2.00459
H      0.21369    -1.46935    -3.77595
H      0.13707    -0.63662    -1.51249
H      0.18871    -2.67195    -2.46916
H     -1.30749    -2.26375    -3.32002
C      0.77166     0.43346     4.08950
O     -0.05973    -0.15432     3.10149
H      1.73992     0.72107     3.67065
H     -0.22712     0.52880     2.41564
H      0.29997     1.31775     4.51905
H      0.93178    -0.29518     4.88152
