 60
-1158.092069218266
C     -1.48901    -2.13557    -4.10584
O     -2.29384    -0.98822    -3.90679
H     -0.51421    -2.03030    -3.62126
H     -2.48598    -0.93447    -2.96401
H     -1.97563    -3.03899    -3.72708
H     -1.33355    -2.26093    -5.17682
C      3.29711     1.93863     2.58693
O      2.38589     1.05805     1.96053
H      3.24367     2.93461     2.14325
H      1.47705     1.30722     2.24830
H      3.09606     2.02278     3.65716
H      4.30754     1.55570     2.44896
C      1.31254     2.61992    -0.57509
O      0.68190     1.50631    -1.19233
H      1.25758     3.49795    -1.22092
H     -0.24463     1.75701    -1.39854
H      0.84671     2.85571     0.38133
H      2.35651     2.37252    -0.40614
C     -1.23234     1.67662     2.13479
O     -0.06558     1.44487     2.90775
H     -1.17567     2.67267     1.70016
H     -0.14835     0.55717     3.32308
H     -1.33501     0.95038     1.33015
H     -2.12626     1.63666     2.75951
C      3.44005    -1.62417     3.60545
O      2.45756    -1.56564     2.58631
H      3.55014    -0.65682     4.09967
H      2.52064    -0.67611     2.18333
H      3.14378    -2.36795     4.34623
H      4.40567    -1.91839     3.19007
C      0.47393    -2.21048    -0.21446
O     -0.26287    -1.00279     0.01474
H     -0.24425    -3.02955    -0.26810
H      0.30053    -0.23091    -0.16689
H      1.01450    -2.15891    -1.15771
H      1.15967    -2.40282     0.60763
C     -3.63997    -1.17338    -0.16662
O     -2.64890    -0.79977    -1.10807
H     -3.41460    -0.77328     0.82515
H     -1.76943    -0.95636    -0.69816
H     -4.59673    -0.77761    -0.49845
H     -3.70962    -2.26047    -0.09678
C      1.31299     0.04845    -4.24615
O      1.65924    -0.41545    -2.95623
H      1.69298    -0.66008    -4.98174
H      1.39087     0.27059    -2.33305
H      0.22880     0.12653    -4.36648
H      1.76000     1.02505    -4.45554
C     -1.03099    -1.93334     3.21853
O      0.00597    -1.09623     3.69321
H     -1.15385    -1.83864     2.13879
H      0.85924    -1.41746     3.33770
H     -0.83522    -2.97804     3.46682
H     -1.95788    -1.64052     3.71102
C     -2.16347     2.39756    -3.03513
O     -1.89181     1.97162    -1.69675
H     -3.14910     2.86015    -3.09708
H     -2.40115     1.16673    -1.51629
H     -1.41375     3.13804    -3.31282
H     -2.10554     1.56082    -3.72964
