 42
-810.6680751309553
C      2.34815     1.74038     1.25740
O      2.50498     1.75171    -0.15440
H      1.85569     2.66174     1.56872
H      2.46276     0.81812    -0.45156
H      1.74191     0.89103     1.57817
H      3.32094     1.69054     1.75009
C      2.20942    -1.71527     0.26023
O      2.15372    -0.81485    -0.83509
H      3.16829    -1.60206     0.76474
H      1.28155    -0.93702    -1.25689
H      1.41004    -1.52105     0.97776
H      2.12652    -2.74848    -0.08100
C     -1.23157    -3.53990     1.11786
O     -1.40679    -2.27315     0.51474
H     -1.84165    -3.63407     2.01850
H     -1.21982    -1.58789     1.19434
H     -1.53836    -4.30752     0.40877
H     -0.18522    -3.70595     1.38836
C      0.17551     2.50701    -2.42352
O      0.29529     2.92321    -1.07047
H      0.04171     1.42581    -2.49938
H      1.18581     2.63456    -0.77051
H     -0.68674     3.00562    -2.86252
H      1.05826     2.79138    -2.99661
C     -0.43522    -2.21072    -2.84034
O     -0.32178    -1.30437    -1.76148
H      0.20687    -1.86783    -3.65043
H     -0.80463    -1.67298    -0.99247
H     -0.12288    -3.21787    -2.55062
H     -1.46273    -2.25739    -3.20713
C     -1.31472    -0.03544     3.47328
O     -0.82450    -0.27596     2.16683
H     -2.38267     0.19493     3.46533
H     -1.00229     0.52871     1.62617
H     -1.15126    -0.92865     4.07518
H     -0.78070     0.79641     3.93579
C     -2.54611     1.29972    -0.25219
O     -1.47065     1.73806     0.56745
H     -3.24304     0.72306     0.35500
H     -0.85292     2.24916    -0.00182
H     -3.08260     2.14929    -0.67544
H     -2.18737     0.66627    -1.06451
