 60
-1158.0939020528542
C     -1.40835    -5.33250    -0.17861
O     -1.17515    -4.68486    -1.41843
H     -0.49484    -5.85500     0.10719
H     -1.83815    -3.99310    -1.52936
H     -1.66441    -4.62803     0.61553
H     -2.20997    -6.07096    -0.26052
C     -2.07232    -1.70093     3.62269
O     -2.05047    -2.67272     2.59794
H     -1.07016    -1.49212     4.00952
H     -1.42610    -2.35875     1.93057
H     -2.50851    -0.75980     3.27228
H     -2.68293    -2.07872     4.44028
C      4.39431     2.71277     0.53606
O      3.33468     3.12690    -0.31783
H      5.35627     2.86910     0.04642
H      2.90632     2.30820    -0.65163
H      4.36859     3.30056     1.45608
H      4.29159     1.65729     0.79150
C     -0.12977    -2.20162    -3.62417
O     -0.76788    -1.10768    -2.98404
H      0.79780    -1.84045    -4.07399
H     -1.52640    -1.44755    -2.48986
H      0.12114    -2.99859    -2.92195
H     -0.74985    -2.61995    -4.42109
C      2.14579     0.55438    -2.42709
O      2.15840     0.85829    -1.03545
H      1.14252     0.34734    -2.79405
H      1.25879     0.77692    -0.67680
H      2.57084     1.39130    -2.98120
H      2.77606    -0.31848    -2.60449
C     -1.30034     1.46953    -0.69954
O     -0.33432     0.96950     0.23095
H     -1.91578     2.22135    -0.21271
H     -0.21484     1.68911     0.91017
H     -0.79888     1.92681    -1.55324
H     -1.93222     0.65696    -1.04970
C     -3.78389    -2.08024    -0.28362
O     -2.57750    -2.14685    -1.03371
H     -3.91878    -1.08441     0.14224
H     -1.84650    -2.03122    -0.39848
H     -4.61174    -2.28668    -0.95745
H     -3.78149    -2.81021     0.52394
C      0.72445    -2.16384     0.03977
O     -0.47579    -1.62946     0.60284
H      0.95871    -1.68786    -0.90973
H     -0.42101    -0.64633     0.56005
H      1.55363    -2.00993     0.72652
H      0.58320    -3.22675    -0.12734
C      0.24031     2.69286     3.24978
O     -0.08635     2.92827     1.88653
H     -0.19903     1.74427     3.55536
H      0.48332     3.67230     1.57495
H      1.32139     2.64496     3.38934
H     -0.16737     3.48475     3.87715
C      1.10107     5.62050    -0.04128
O      1.62286     4.72807     0.93108
H      0.54683     5.07865    -0.81241
H      2.30711     4.18202     0.47875
H      0.43028     6.32069     0.45187
H      1.90315     6.18186    -0.52094
