 30
-579.033160116616
C      2.77080     2.23845     0.80455
O      1.85300     1.17656     0.67156
H      2.27216     3.21268     0.81951
H      1.26975     1.38359    -0.07764
H      3.30644     2.11945     1.74728
H      3.50265     2.24514    -0.00899
C     -1.63082    -0.04420     1.62878
O     -1.75005    -1.18827     0.78797
H     -1.82431    -0.31302     2.66810
H     -1.01216    -1.78200     1.00727
H     -0.64295     0.41417     1.55018
H     -2.38335     0.68040     1.31993
C      1.68220    -2.25442     1.69650
O      0.41143    -2.77638     1.28528
H      1.74283    -1.22630     1.35269
H      0.35575    -3.69998     1.52833
H      1.77114    -2.27642     2.78396
H      2.49565    -2.82891     1.24982
C     -0.74629     2.87580    -1.15657
O      0.09457     1.75102    -1.32499
H     -1.53287     2.67674    -0.42542
H     -0.48371     0.99138    -1.55295
H     -0.14455     3.71220    -0.80155
H     -1.21334     3.15979    -2.10141
C     -0.89468    -1.43362    -2.43692
O     -1.50571    -0.35838    -1.74322
H     -0.74462    -1.13685    -3.47316
H     -1.72613    -0.68576    -0.84481
H      0.07347    -1.68535    -1.99752
H     -1.53096    -2.32002    -2.41791
