 36
-694.8573265759936
C     -0.40390     2.15652    -1.21462
O     -0.68136     2.09726     0.18521
H     -0.79613     1.27989    -1.72842
H     -1.57321     1.69832     0.28603
H     -0.84607     3.05364    -1.65068
H      0.67528     2.19376    -1.35852
C      3.54463    -0.74583    -0.81021
O      2.28796    -0.09818    -0.89351
H      4.30738    -0.06964    -0.42113
H      2.10875     0.36406    -0.04929
H      3.48782    -1.62407    -0.16102
H      3.83925    -1.06562    -1.80888
C      1.33595     0.99373     2.71693
O      1.50450     1.18617     1.32438
H      2.18840     0.43449     3.09626
H      0.68083     1.61326     0.99318
H      1.27871     1.95199     3.23542
H      0.42316     0.43097     2.92703
C      0.70894    -2.48343    -2.50400
O      0.20174    -1.19896    -2.18051
H      1.01087    -2.52245    -3.55167
H      0.93914    -0.69919    -1.77921
H      1.56803    -2.72755    -1.87786
H     -0.06788    -3.23100    -2.33974
C     -3.64233     0.56489     1.53164
O     -2.97602     0.74265     0.29464
H     -4.52322     1.20268     1.55484
H     -2.63843    -0.13300     0.00536
H     -3.95994    -0.47029     1.66671
H     -2.99110     0.84096     2.36709
C     -0.82655    -1.69386     0.82319
O     -1.66814    -1.49986    -0.30440
H     -1.32475    -1.30941     1.71156
H     -1.07761    -1.39544    -1.07998
H     -0.63011    -2.75501     0.97785
H      0.12498    -1.17585     0.70854
