 60
-1158.086625434209
C      0.48137     0.38083    -5.07160
O     -0.75402    -0.15427    -4.64248
H      0.93814    -0.32884    -5.76157
H     -1.19658     0.51004    -4.10447
H      0.34882     1.32960    -5.60026
H      1.16751     0.54019    -4.23712
C      1.45189     3.50189    -2.94525
O      0.96280     2.41281    -2.17788
H      2.39541     3.83127    -2.50927
H      0.04781     2.21969    -2.43492
H      1.64421     3.21081    -3.98305
H      0.76055     4.35095    -2.94759
C      3.09317     0.46196     0.35599
O      2.47753     1.22421     1.39250
H      4.17291     0.43849     0.49476
H      2.63833     0.76589     2.24697
H      2.71788    -0.56317     0.33192
H      2.88502     0.94517    -0.59810
C     -3.34485    -2.78141    -0.27775
O     -2.83741    -1.89193     0.69732
H     -4.12190    -3.39215     0.17845
H     -2.22328    -1.29923     0.24289
H     -3.78340    -2.24808    -1.12628
H     -2.56593    -3.44597    -0.66397
C      3.37268    -1.32978     3.63193
O      2.56549    -0.15588     3.68271
H      3.10378    -1.94989     2.77889
H      1.64313    -0.41194     3.81658
H      4.40848    -1.01180     3.53686
H      3.27204    -1.91106     4.54869
C      0.17806    -3.49870     1.57271
O      0.91020    -2.28910     1.56882
H      0.57320    -4.14877     0.79063
H      0.46402    -1.66427     2.16212
H      0.28832    -4.02705     2.52481
H     -0.88173    -3.33410     1.38532
C     -3.22791     1.78030    -2.45097
O     -1.83217     1.53952    -2.53068
H     -3.52442     1.97599    -1.41841
H     -1.64611     0.81056    -1.90578
H     -3.46201     2.65096    -3.05724
H     -3.79120     0.92144    -2.82027
C     -0.01283    -1.05176    -1.36940
O     -1.05559    -0.29839    -0.73748
H     -0.42009    -1.53993    -2.25102
H     -0.64881     0.27692    -0.04632
H      0.79724    -0.39867    -1.68622
H      0.37556    -1.80009    -0.68576
C     -1.55267    -1.05957     3.85889
O     -0.35165    -0.56040     3.26942
H     -2.19738    -1.50424     3.10339
H     -0.55237     0.17492     2.66846
H     -1.26932    -1.81833     4.58442
H     -2.08493    -0.26045     4.37591
C     -0.57025     2.63716     0.96935
O     -0.09354     1.30477     1.13945
H     -1.62423     2.60306     0.69780
H      0.90386     1.33572     1.20366
H     -0.46503     3.19729     1.89778
H     -0.01856     3.13706     0.17582
