 36
-694.8521737728942
C     -0.83153     2.06816    -1.10725
O     -0.05934     1.37093    -0.13706
H     -1.29028     2.92892    -0.62220
H      0.25622     0.54262    -0.54432
H     -0.20017     2.42032    -1.92097
H     -1.61915     1.43603    -1.52202
C      2.00665    -1.40304    -0.99442
O      0.65305    -1.01212    -1.18497
H      2.61927    -0.51515    -0.83085
H      0.08196    -1.56439    -0.59180
H      2.08809    -2.06031    -0.13083
H      2.37076    -1.92651    -1.87735
C      1.43629    -0.70246     2.63624
O      0.06381    -0.98695     2.85445
H      1.59999    -0.19616     1.68082
H     -0.41440    -0.13150     2.84231
H      1.83957    -0.07721     3.43317
H      1.98314    -1.64463     2.63386
C      1.15068     0.25539    -4.53576
O      0.00751     0.29185    -3.70554
H      1.40684    -0.76510    -4.83332
H      0.19451    -0.23384    -2.92092
H      0.92993     0.82853    -5.43345
H      2.01777     0.70457    -4.04234
C     -2.17910    -1.76314     0.51779
O     -0.82752    -2.20641     0.63457
H     -2.45755    -1.77489    -0.53521
H     -0.50346    -1.89710     1.50993
H     -2.84632    -2.42903     1.06326
H     -2.29160    -0.74828     0.90213
C     -0.61985     2.56865     3.00089
O     -1.06530     1.40097     2.33761
H     -1.28104     3.41150     2.78966
H     -0.75069     1.44992     1.40969
H     -0.62372     2.38753     4.07486
H      0.39378     2.83638     2.69399
