 60
-1158.0941681912848
C     -0.23013    -1.83506     2.90326
O     -0.00508    -0.46189     3.21336
H     -0.79409    -2.31787     3.70217
H     -0.88163    -0.02518     3.20500
H     -0.76908    -1.95662     1.96290
H      0.73505    -2.33629     2.82418
C      2.01432    -0.69397     0.23007
O      0.88206    -0.69913    -0.64186
H      2.67175    -1.53530     0.00948
H      1.10605    -0.21035    -1.45431
H      2.58792     0.22473     0.13553
H      1.66459    -0.78589     1.25244
C      0.64605     2.72615     3.23714
O      1.31238     1.74437     2.44491
H     -0.39287     2.44350     3.40781
H      0.97970     0.86857     2.73440
H      1.15002     2.84740     4.19699
H      0.66790     3.67855     2.70655
C     -2.46985    -2.37771    -1.52411
O     -2.62979    -2.13391    -0.13726
H     -3.40279    -2.19424    -2.06327
H     -2.45424    -1.20188     0.02146
H     -1.68917    -1.76247    -1.97068
H     -2.19802    -3.42180    -1.66392
C     -0.00630    -1.21220    -4.23757
O     -0.50059     0.05415    -3.84028
H      0.54332    -1.70147    -3.43059
H      0.24297     0.61679    -3.59728
H     -0.85920    -1.84164    -4.48533
H      0.64065    -1.14233    -5.11502
C      0.20266    -4.31929    -0.15312
O      0.67235    -3.54652    -1.24143
H     -0.74343    -3.93489     0.23186
H      0.58228    -2.61791    -1.00176
H      0.05265    -5.34118    -0.49984
H      0.92854    -4.34474     0.66666
C     -3.53032     0.03697     2.75810
O     -2.32649     0.78422     2.67935
H     -4.31554     0.49927     2.15748
H     -2.07527     0.83619     1.73525
H     -3.39439    -0.98938     2.41240
H     -3.85279     0.01973     3.79684
C      3.00398     1.46673    -2.74053
O      1.64065     1.42282    -2.34745
H      3.66666     1.41019    -1.87583
H      1.55608     1.96983    -1.53557
H      3.20508     0.62025    -3.39511
H      3.21565     2.38708    -3.28649
C      2.50933     3.79815     0.07439
O      1.56261     2.74866    -0.02715
H      2.03452     4.71434     0.43168
H      1.44672     2.34261     0.86229
H      3.32621     3.53786     0.74995
H      2.92955     3.99312    -0.91298
C     -1.70502     1.50605    -0.84992
O     -1.43068     0.55200     0.17749
H     -1.92098     1.00684    -1.79416
H     -0.59537     0.08374    -0.01602
H     -2.57769     2.08421    -0.54547
H     -0.86213     2.18333    -0.97832
