 42
-810.6661438817417
C     -3.35669    -1.39617     0.77297
O     -2.02774    -1.18339     0.32317
H     -3.49541    -2.44185     1.04642
H     -1.54032    -0.71482     1.05071
H     -3.56206    -0.76760     1.63744
H     -4.05637    -1.13864    -0.02236
C     -0.05355    -0.44147     3.24043
O     -0.77878     0.14701     2.16468
H      0.84645    -0.93781     2.87999
H     -0.21431     0.83945     1.76993
H      0.22943     0.32024     3.96841
H     -0.70049    -1.16835     3.72795
C      1.10751    -2.68026    -0.33153
O     -0.02108    -2.53833    -1.17152
H      1.30586    -1.78163     0.25848
H     -0.76326    -2.24000    -0.63133
H      1.00314    -3.52970     0.34906
H      1.97430    -2.86628    -0.96760
C     -1.98513    -0.57275    -3.11847
O     -1.91720     0.28212    -1.98615
H     -1.17827    -1.30523    -3.11105
H     -2.00544    -0.26777    -1.18572
H     -2.93986    -1.10124    -3.15429
H     -1.90262     0.04239    -4.01337
C      1.33673     0.77301    -2.24828
O      0.36004     1.64400    -1.68616
H      1.29992     0.81074    -3.33675
H     -0.51962     1.23536    -1.85878
H      2.32638     1.11372    -1.94599
H      1.19240    -0.25671    -1.91563
C      3.78750    -0.03049     0.52168
O      2.76627     0.05409     1.49462
H      4.07957     0.95522     0.14661
H      2.15957     0.76556     1.25300
H      4.66041    -0.49634     0.97638
H      3.48391    -0.64861    -0.32919
C      0.51681     3.31947     1.23858
O      0.75497     1.97193     0.86476
H     -0.36864     3.70386     0.73303
H      0.61673     1.90176    -0.11965
H      0.35719     3.36194     2.31523
H      1.37635     3.93829     0.98144
