 60
-1158.1040502618014
C      2.00174     4.40877     1.02255
O      1.67085     3.05226     0.81281
H      1.95414     4.67461     2.08264
H      0.71615     2.96022     0.96639
H      3.02111     4.58424     0.67817
H      1.33729     5.07995     0.47016
C      2.30386    -3.90115    -0.45520
O      2.91589    -2.85384    -1.18954
H      2.03962    -4.73534    -1.10878
H      2.26412    -2.49818    -1.82475
H      3.01204    -4.25862     0.28906
H      1.40213    -3.56294     0.05927
C      0.08076     1.61365    -1.77629
O     -0.25951     0.26204    -1.50374
H     -0.55190     2.30508    -1.22699
H     -0.15169     0.08912    -0.54948
H      1.11739     1.81589    -1.52013
H     -0.06844     1.79892    -2.83700
C      1.51357    -1.18194    -4.05425
O      1.10734    -1.62592    -2.77616
H      0.65781    -0.86425    -4.65295
H      0.58471    -0.91499    -2.34501
H      2.21230    -0.34508    -3.97521
H      2.01019    -1.99966    -4.57442
C      3.42268     0.38104    -0.46479
O      3.06358    -0.69731     0.39875
H      2.78782     0.40371    -1.35253
H      3.19432    -1.52765    -0.10978
H      3.30469     1.32042     0.06808
H      4.45963     0.28107    -0.78219
C     -3.46704    -1.57030     2.71450
O     -3.20711    -1.15422     1.38628
H     -2.56168    -1.54733     3.32606
H     -2.52761    -1.75567     1.00666
H     -4.20597    -0.90309     3.15553
H     -3.86538    -2.58575     2.72894
C     -3.36208     1.33117    -0.80798
O     -2.99939     1.33448     0.56501
H     -3.27877     2.34469    -1.20046
H     -3.12877     0.41988     0.90321
H     -2.70557     0.67491    -1.37860
H     -4.39312     0.99947    -0.93554
C     -1.29877    -2.87602    -0.97556
O     -1.20151    -2.60953     0.41876
H     -0.37930    -3.31515    -1.35681
H     -0.45805    -1.99673     0.57035
H     -2.11589    -3.57760    -1.12584
H     -1.51007    -1.96946    -1.54460
C      0.20157    -0.00478     2.19103
O      0.52892    -0.64077     0.95859
H      0.45793    -0.65625     3.02671
H      1.51663    -0.65074     0.83897
H      0.73213     0.93906     2.29654
H     -0.86542     0.20242     2.22285
C     -1.56032     3.87399     2.17381
O     -1.01593     2.90965     1.29315
H     -1.78154     3.43054     3.14758
H     -1.74913     2.30632     1.02878
H     -0.84000     4.68010     2.31345
H     -2.47953     4.30251     1.76914
