 24
-463.22841044388787
C      2.88783     1.05097    -0.42442
O      1.85921     0.55018     0.41036
H      2.54296     1.15124    -1.45644
H      1.58362    -0.32683     0.07429
H      3.18114     2.03062    -0.05127
H      3.76030     0.39533    -0.40643
C     -0.73804     2.57534    -0.35958
O     -0.58217     1.63745     0.69056
H     -0.04124     3.40645    -0.24721
H      0.36058     1.37176     0.70092
H     -0.57620     2.11298    -1.33722
H     -1.75186     2.96826    -0.31921
C     -3.07774    -0.52829    -0.40917
O     -1.79023    -0.70515     0.15438
H     -3.58558    -1.49034    -0.42063
H     -1.47041     0.17705     0.43695
H     -3.67082     0.17107     0.18386
H     -3.01024    -0.14975    -1.43198
C      0.90416    -3.00107     0.13712
O      0.66446    -1.73007    -0.44512
H      0.23236    -3.75327    -0.28102
H     -0.27442    -1.50138    -0.30154
H      1.93032    -3.28899    -0.08296
H      0.76585    -2.96806     1.22014
