 36
-694.8540483914364
C      0.67633    -1.75624    -2.83600
O      0.56999    -0.92151    -1.69682
H      1.67909    -1.65705    -3.24368
H     -0.29372    -1.11955    -1.26099
H      0.50568    -2.79956    -2.56273
H     -0.04994    -1.46694    -3.59755
C      2.72077     1.56458    -0.40532
O      1.42260     1.64205    -0.98380
H      3.44856     1.21489    -1.13922
H      1.18001     0.76444    -1.32068
H      3.00549     2.56423    -0.08043
H      2.73115     0.89177     0.45285
C      1.40442    -2.65919     1.31941
O      2.13001    -1.59150     0.73966
H      0.33199    -2.45113     1.34943
H      1.74760    -1.40992    -0.12539
H      1.56364    -3.59628     0.77841
H      1.75609    -2.79253     2.34291
C     -1.34268     3.30208    -0.08374
O     -0.45780     2.52223     0.70161
H     -0.80531     4.09074    -0.61189
H      0.28195     2.25675     0.11404
H     -1.85793     2.68008    -0.82133
H     -2.08271     3.76067     0.56951
C     -2.90451    -1.01646    -1.05414
O     -1.69149    -1.36471    -0.40593
H     -2.89622     0.03439    -1.35522
H     -1.65085    -0.83644     0.42895
H     -3.02469    -1.63825    -1.94015
H     -3.75806    -1.17975    -0.39553
C     -0.70090    -0.09452     2.80005
O     -1.48984     0.25400     1.67163
H      0.32631    -0.31654     2.50521
H     -1.17339     1.13110     1.35670
H     -0.69009     0.71424     3.53190
H     -1.13915    -0.97396     3.27061
