 36
-694.8495668143014
C      0.53130     3.70973    -1.14554
O      1.71236     3.07347    -1.59442
H      0.76653     4.75470    -0.95319
H      1.48571     2.15868    -1.78742
H     -0.26208     3.66473    -1.89662
H      0.15591     3.26148    -0.22221
C      1.73053    -0.79984    -1.23343
O      0.82579     0.29752    -1.28647
H      1.57168    -1.42460    -2.11051
H      0.73200     0.62029    -0.36039
H      2.75959    -0.44125    -1.24882
H      1.56486    -1.39527    -0.33634
C      1.84497     1.62485     1.79506
O      0.73011     0.90671     1.28263
H      1.58768     2.11028     2.73782
H      0.66913     0.03087     1.71632
H      2.69392     0.95878     1.96383
H      2.14050     2.38858     1.07824
C     -2.72607    -0.44865     1.13947
O     -1.90908    -1.46807     0.57300
H     -2.12118     0.41431     1.42562
H     -1.80727    -1.25309    -0.38279
H     -3.48747    -0.12262     0.43094
H     -3.21889    -0.84895     2.02328
C     -1.36487    -1.79388    -2.87089
O     -1.56224    -0.73318    -1.94993
H     -0.81878    -1.45256    -3.75173
H     -0.72312    -0.23893    -1.87285
H     -0.81101    -2.61848    -2.41423
H     -2.33701    -2.16190    -3.18789
C      0.13017    -2.40993     3.19762
O      0.31001    -1.66435     2.00861
H      1.08616    -2.46470     3.71434
H     -0.51398    -1.73277     1.47678
H     -0.60119    -1.93739     3.85867
H     -0.20483    -3.42517     2.97517
