 60
-1158.0930904078143
C      4.29065     1.73981     1.40776
O      3.14468     1.01078     1.80257
H      4.10276     2.81589     1.36289
H      2.38452     1.32588     1.29627
H      5.07768     1.56249     2.13997
H      4.65919     1.41678     0.42905
C      0.90761     1.58416    -2.59086
O     -0.03773     2.30921    -1.81701
H      0.94921     0.53651    -2.28741
H      0.29965     2.33951    -0.89454
H      0.60954     1.63779    -3.63527
H      1.90409     2.01474    -2.48348
C      2.70195    -1.04162    -0.64464
O      1.78001    -1.98629    -0.12713
H      2.27383    -0.03643    -0.66477
H      1.05186    -2.06725    -0.78860
H      3.59415    -1.02926    -0.02187
H      2.99628    -1.30452    -1.66294
C     -2.80159     0.00175    -2.78516
O     -1.86711     0.03253    -1.71120
H     -3.40191     0.90658    -2.81550
H     -1.43839     0.90128    -1.68625
H     -2.29007    -0.11842    -3.74274
H     -3.45832    -0.85363    -2.63587
C     -1.06906    -3.23661    -1.79681
O     -0.22868    -2.09117    -1.83160
H     -1.70456    -3.28202    -2.68275
H     -0.81200    -1.30611    -1.78971
H     -0.44213    -4.12802    -1.79281
H     -1.69831    -3.24799    -0.90647
C     -2.16247     0.19823     1.69107
O     -0.83096     0.62800     1.96596
H     -2.57987    -0.30863     2.56005
H     -0.29991    -0.17638     2.16069
H     -2.76957     1.07894     1.48043
H     -2.20053    -0.46883     0.83119
C     -0.50681    -4.59583     1.31334
O     -1.38359    -3.58634     1.77482
H      0.32432    -4.18539     0.73370
H     -0.83572    -2.85074     2.06861
H     -0.09641    -5.18046     2.14111
H     -1.07153    -5.26943     0.66719
C      0.82759     3.44439     1.41970
O      0.73974     2.21512     0.71283
H      1.16981     3.28339     2.44273
H      0.06618     1.64628     1.19563
H      1.54158     4.09280     0.91171
H     -0.14135     3.94502     1.44716
C      1.62509    -1.69809     3.30501
O      0.68135    -1.56138     2.25059
H      1.10637    -1.54795     4.25019
H      1.14391    -1.73551     1.39585
H      2.05414    -2.70094     3.29660
H      2.41694    -0.95863     3.19873
C     -3.14867     3.65356    -1.51403
O     -2.45618     3.35088    -2.70525
H     -2.63449     4.41912    -0.92684
H     -1.54753     3.13776    -2.45665
H     -4.13422     4.03151    -1.77807
H     -3.27602     2.76714    -0.88472
