 36
-694.8528136884551
C     -1.47196     1.20328    -1.75134
O     -0.20719     0.56411    -1.64035
H     -1.34161     2.27755    -1.86710
H      0.38516     1.18072    -1.13596
H     -1.98206     0.80471    -2.62634
H     -2.07635     1.01519    -0.86022
C      2.62675     1.94453    -0.26578
O      1.22131     2.17104    -0.16270
H      2.81699     1.23367    -1.07217
H      0.98769     2.07341     0.78759
H      3.13773     2.88032    -0.49182
H      3.01469     1.53289     0.66506
C     -1.76735    -0.99049     2.87076
O     -0.44282    -0.79731     2.41587
H     -2.03212    -2.04825     2.86564
H     -0.39258    -1.20714     1.52518
H     -1.84765    -0.62431     3.89236
H     -2.48490    -0.45197     2.24462
C      1.29484    -2.04909    -3.18330
O      0.06430    -1.43289    -3.50512
H      2.13604    -1.35621    -3.28143
H      0.00970    -0.63138    -2.96908
H      1.29129    -2.44285    -2.16369
H      1.45126    -2.87691    -3.87267
C     -0.13101     2.50312     3.19607
O      0.65284     1.64226     2.39297
H     -1.16823     2.53420     2.85349
H      0.28544     0.73634     2.47378
H     -0.11830     2.18154     4.23909
H      0.28712     3.50651     3.13870
C     -1.33236    -2.68732    -0.61412
O     -0.44912    -1.72109    -0.06697
H     -1.10027    -2.87969    -1.65937
H     -0.37031    -0.98538    -0.69846
H     -1.21621    -3.60940    -0.04871
H     -2.37166    -2.35730    -0.53453
