 54
-1042.2804396723354
C      4.61819    -3.08766    -0.21933
O      3.46183    -2.77843     0.54103
H      4.69755    -2.44097    -1.09790
H      3.68088    -2.06246     1.17313
H      5.52396    -2.97762     0.37961
H      4.54795    -4.12044    -0.55238
C     -4.79791     1.07583    -3.13274
O     -3.54970     1.71575    -2.91338
H     -4.73117     0.50300    -4.05530
H     -3.63126     2.25264    -2.09562
H     -5.04350     0.39753    -2.31134
H     -5.59870     1.80922    -3.23332
C      0.23947    -2.36331    -0.52365
O      1.36555    -1.49237    -0.48929
H     -0.13377    -2.55502     0.48238
H      2.14800    -2.01980    -0.21526
H     -0.54358    -1.90181    -1.11977
H      0.50062    -3.32060    -0.97833
C      4.47856     0.38247     1.06258
O      3.72566    -0.46320     1.92155
H      4.97255     1.17142     1.63324
H      2.81868    -0.10644     1.93879
H      5.24807    -0.20538     0.56091
H      3.83469     0.83220     0.30513
C      1.16357     1.78920     0.93113
O      1.22176     0.43715     1.36089
H      0.19319     2.21243     1.17615
H      1.10871    -0.15892     0.58795
H      1.93640     2.35939     1.44584
H      1.32892     1.86334    -0.14498
C     -2.83042     4.11192    -0.41654
O     -3.54548     2.88907    -0.48146
H     -2.54387     4.34569     0.61022
H     -3.00444     2.20850    -0.02388
H     -1.92478     4.07717    -1.02981
H     -3.47423     4.90587    -0.78673
C     -2.59965    -0.09975     1.07400
O     -1.93362     0.93204     0.35866
H     -3.62278    -0.22907     0.71319
H     -1.68769     0.56749    -0.51960
H     -2.06965    -1.04639     0.97973
H     -2.62565     0.17000     2.12620
C      0.72620    -2.42300     3.22749
O     -0.26036    -1.42938     3.03592
H      1.52129    -2.08229     3.89590
H      0.15985    -0.66372     2.62717
H      0.24845    -3.28996     3.68615
H      1.17918    -2.73642     2.28480
C     -0.34130     0.56512    -2.70043
O     -1.56781     0.07800    -2.17896
H      0.47981     0.06611    -2.19062
H     -2.29490     0.60335    -2.58270
H     -0.26865     0.36243    -3.76886
H     -0.24447     1.64445    -2.55268
