 36
-694.8483187713242
C     -0.67902     4.87740    -0.71260
O     -1.34515     3.63417    -0.80288
H     -0.99877     5.49384    -1.55178
H     -1.06344     3.08883    -0.05744
H     -0.92213     5.40375     0.21445
H      0.40810     4.75793    -0.76662
C      2.35670    -0.38466     2.13811
O      1.99505    -1.17020     1.00771
H      3.33353     0.07934     1.98919
H      1.81278    -0.58497     0.25621
H      1.61317     0.38706     2.33280
H      2.41664    -1.05254     2.99566
C      0.79493     1.08521    -2.22323
O      0.68978     0.23074    -1.09084
H     -0.12097     1.66118    -2.36086
H      0.02492    -0.47851    -1.28089
H      1.62123     1.77223    -2.05475
H      0.99754     0.50585    -3.12347
C      0.49271    -4.24316     0.76860
O     -0.02585    -2.92924     0.92375
H      1.51424    -4.21557     0.38582
H      0.73367    -2.33676     1.09730
H      0.48456    -4.77175     1.72349
H     -0.13358    -4.79140     0.06343
C     -1.16234     0.78721     1.63097
O     -0.24308     1.70021     1.05163
H     -1.14469     0.92165     2.71216
H      0.15891     1.25245     0.29112
H     -2.17755     0.98589     1.28125
H     -0.91236    -0.25162     1.41002
C     -2.41028    -1.54067    -1.29870
O     -1.00481    -1.75616    -1.31003
H     -2.78735    -1.46658    -0.27673
H     -0.77140    -2.31271    -0.53610
H     -2.62422    -0.60755    -1.81917
H     -2.92409    -2.35385    -1.81121
