 60
-1158.0918953205783
C     -1.30851    -2.67899     1.47583
O      0.08372    -2.41607     1.33799
H     -1.87829    -2.17130     0.69699
H      0.29140    -1.58087     1.82461
H     -1.46837    -3.75162     1.40018
H     -1.66065    -2.33589     2.44852
C     -2.23750     4.76719    -1.30449
O     -1.89686     3.47082    -1.75913
H     -2.84606     4.72917    -0.39459
H     -2.71734     2.95235    -1.84063
H     -1.31843     5.30872    -1.07523
H     -2.78638     5.33099    -2.06325
C      4.59988     0.64146     0.08685
O      3.45782     0.16018     0.77755
H      4.91537     1.61974     0.46147
H      2.70464     0.73395     0.59193
H      5.41224    -0.06643     0.24581
H      4.42003     0.71830    -0.99021
C     -0.34656     0.56632    -2.87483
O     -0.17962     0.16364    -1.52170
H      0.56773     0.39799    -3.44300
H      0.18206    -0.77378    -1.51422
H     -1.15329     0.00007    -3.34042
H     -0.59347     1.62351    -2.89696
C      2.07468    -2.58739    -1.49154
O      0.71087    -2.22204    -1.26747
H      2.32316    -2.34358    -2.52391
H      0.50969    -2.42213    -0.33006
H      2.74869    -2.05711    -0.82013
H      2.20530    -3.65795    -1.35242
C      3.25799    -3.44990     2.16534
O      2.33020    -4.15288     1.36397
H      3.42326    -2.43346     1.79962
H      1.48236    -3.70337     1.44926
H      2.93569    -3.40040     3.21054
H      4.20551    -3.98667     2.14006
C     -2.42127     0.82647     0.89669
O     -2.69914     0.17220    -0.33306
H     -3.36986     1.09234     1.35634
H     -1.86090     0.07287    -0.81402
H     -1.88091     0.17427     1.57712
H     -1.84402     1.73893     0.75404
C      1.55714    -0.17686     3.60039
O      0.51457    -0.17220     2.62428
H      1.47248    -1.09715     4.17726
H      0.66342     0.56360     2.00412
H      2.53690    -0.14140     3.12691
H      1.44548     0.66900     4.28011
C     -4.66295     1.17475    -2.95066
O     -4.12400     1.85981    -1.83504
H     -5.22927     0.29526    -2.63751
H     -3.73756     1.18446    -1.23953
H     -5.33227     1.84790    -3.48207
H     -3.86956     0.85280    -3.63095
C      0.77847     2.99824     0.27109
O      0.88177     1.59563     0.48362
H     -0.26247     3.30638     0.19642
H      0.45277     1.14313    -0.27285
H      1.25346     3.50237     1.10947
H      1.29199     3.28044    -0.64909
