 24
-463.2307399820149
C      2.36756     0.67541    -1.43345
O      1.80858     0.57345    -0.13371
H      1.62135     0.46920    -2.20588
H      1.50276    -0.35183    -0.01631
H      2.74041     1.68880    -1.56652
H      3.19810    -0.02109    -1.55584
C     -0.67364     2.35541     1.43151
O     -0.57050     1.80426     0.12839
H      0.02119     3.18655     1.55904
H      0.35429     1.49627     0.01156
H     -1.68795     2.72509     1.56670
H     -0.46594     1.60497     2.19950
C     -2.36662    -0.67458    -1.43238
O     -1.80573    -0.57284    -0.13356
H     -2.74105    -1.68738    -1.56476
H     -1.49657     0.35175    -0.01878
H     -3.19641     0.02294    -1.55447
H     -1.62095    -0.46976    -2.20565
C      0.67255    -2.35640     1.43419
O      0.57376    -1.80498     0.13086
H      1.68640    -2.72612     1.57292
H     -0.35050    -1.49656     0.01142
H      0.46205    -1.60603     2.20148
H     -0.02276    -3.18758     1.55922
