 42
-810.6648260150944
C     -0.58802    -1.93613    -2.95424
O     -1.61653    -1.44975    -2.10539
H      0.28551    -2.23272    -2.37119
H     -1.54131    -1.96614    -1.27780
H     -0.93949    -2.79107    -3.53337
H     -0.29500    -1.15030    -3.64990
C      2.59546    -2.56714     0.81602
O      1.49063    -1.80444     0.37627
H      2.47456    -2.88044     1.85602
H      1.47357    -0.97842     0.91240
H      2.68668    -3.45382     0.18933
H      3.52135    -1.99433     0.73307
C     -0.87764    -4.21532     0.02299
O     -0.96747    -2.80819     0.11797
H     -0.47454    -4.64608     0.94153
H     -0.05795    -2.47138     0.26546
H     -1.87561    -4.62020    -0.13636
H     -0.23773    -4.52247    -0.80863
C      0.25148     1.21915    -1.74998
O     -1.14288     1.11946    -1.46079
H      0.78194     0.29908    -1.49636
H     -1.42561     0.22060    -1.74100
H      0.40167     1.42896    -2.80960
H      0.67318     2.04489    -1.18042
C     -2.15818     0.65398     1.72941
O     -1.15636     1.49908     1.16832
H     -2.01195    -0.38456     1.42817
H     -1.24619     1.42693     0.18773
H     -2.09630     0.72775     2.81275
H     -3.14669     0.98222     1.41102
C      2.35502     1.34170     1.77817
O      1.28475     0.40459     1.80073
H      2.30418     1.98418     0.89952
H      0.44588     0.88561     1.66965
H      2.34160     1.96619     2.67195
H      3.29244     0.78578     1.75749
C     -0.30130     4.61438    -0.13217
O      0.41303     3.90110     0.86062
H     -1.23186     5.03107     0.26236
H     -0.16959     3.20656     1.18930
H      0.32693     5.43705    -0.47299
H     -0.54123     3.97987    -0.98928
