 42
-810.6638390391442
C     -0.68763    -2.56348    -2.88978
O     -1.35240    -1.68752    -1.99746
H     -1.28129    -3.46181    -3.06261
H     -1.35751    -2.12057    -1.11439
H     -0.54489    -2.05617    -3.84312
H      0.28931    -2.86257    -2.50367
C      1.99000    -1.60168    -0.09015
O      1.28243    -1.91270     1.10207
H      2.86695    -0.99202     0.12772
H      1.26694    -1.07809     1.62479
H      2.32346    -2.53316    -0.54728
H      1.36686    -1.06016    -0.80571
C     -1.21025    -4.24455     0.54736
O     -1.12626    -2.84038     0.38782
H     -0.37665    -4.75007     0.05288
H     -0.25905    -2.55183     0.74814
H     -1.20528    -4.51620     1.60369
H     -2.14306    -4.59127     0.10543
C     -1.00203     1.59926    -2.94469
O     -0.46967     0.82470    -1.88364
H     -0.90469     2.65430    -2.69133
H     -0.79920    -0.09676    -1.98765
H     -0.45329     1.41277    -3.87003
H     -2.05790     1.37351    -3.10439
C     -1.89439     0.81187     0.99437
O     -0.75175     1.57093     0.59667
H     -1.61842    -0.21363     1.24119
H     -0.58913     1.36885    -0.35684
H     -2.32889     1.28829     1.86954
H     -2.62617     0.79519     0.18918
C      2.39397     1.30416     2.11979
O      1.21809     0.50821     2.15367
H      2.62644     1.62569     1.10249
H      0.53373     0.99808     1.66245
H      2.28407     2.18359     2.75018
H      3.22368     0.70638     2.49538
C      0.91338     4.58153     0.41732
O      0.40863     3.92769     1.56102
H      0.12676     4.80351    -0.31052
H     -0.11758     3.18451     1.24553
H      1.36254     5.52243     0.73082
H      1.68189     3.98032    -0.07901
