 60
-1158.0999204122165
C     -1.93156     0.18408    -4.60729
O     -1.66270    -0.81810    -3.63941
H     -2.96546     0.53093    -4.53368
H     -1.71187    -0.41143    -2.76137
H     -1.25686     1.03334    -4.49789
H     -1.78946    -0.25205    -5.59452
C     -0.09333    -3.05970    -0.69735
O     -0.11666    -1.85366     0.06707
H      0.18577    -3.89912    -0.06332
H     -0.48176    -2.04737     0.97239
H     -1.07407    -3.25018    -1.13526
H      0.63681    -2.95399    -1.49393
C      1.50861     3.41658     0.50419
O      0.79621     2.31129     1.02227
H      2.51591     3.47394     0.92427
H      1.16602     1.50344     0.60791
H      1.58148     3.35810    -0.58051
H      0.97377     4.32950     0.76370
C      1.61184    -0.85741    -4.54698
O      0.93241    -1.70352    -3.64177
H      1.26268    -0.99977    -5.57326
H     -0.00931    -1.47034    -3.68054
H      1.49660     0.19799    -4.28438
H      2.67443    -1.10201    -4.52096
C      2.65112     0.09281    -1.12589
O      1.86815     0.05414     0.06617
H      3.70183    -0.04668    -0.86944
H      1.28428    -0.72085     0.03951
H      2.33837    -0.68034    -1.82338
H      2.53897     1.05953    -1.61358
C     -2.43116    -2.72748     2.59603
O     -1.11616    -2.22330     2.42725
H     -2.52873    -3.23241     3.55706
H     -0.99408    -1.52124     3.10741
H     -3.16809    -1.92313     2.54684
H     -2.64253    -3.44329     1.80342
C     -2.03692     0.80525    -0.00264
O     -1.30435     0.19165    -1.05532
H     -1.59661     1.76296     0.25976
H     -0.85364    -0.59421    -0.67435
H     -3.06233     0.96565    -0.33041
H     -2.03903     0.17116     0.88093
C     -0.46828    -0.76175     5.52863
O     -0.81046    -0.32989     4.22276
H     -0.09357     0.06712     6.12801
H     -0.24840     0.45004     4.01331
H     -1.35534    -1.16729     6.01255
H      0.30001    -1.53994     5.49096
C      2.18357     1.07383     3.65111
O      0.87514     1.63714     3.61921
H      2.44952     0.65794     2.67917
H      0.76691     2.01396     2.72239
H      2.91756     1.83033     3.93233
H      2.20298     0.27725     4.39523
C     -0.53667     3.13979    -2.44865
O      0.24112     1.96635    -2.49563
H     -1.54120     2.99597    -2.85789
H     -0.21074     1.28838    -1.96828
H     -0.64242     3.51831    -1.42838
H     -0.04191     3.91033    -3.03998
