 48
-926.4811958164826
C      0.03172    -4.01230     0.95017
O      0.04713    -2.62361     0.67960
H      0.92188    -4.26847     1.52405
H     -0.70749    -2.43787     0.07375
H     -0.84587    -4.28750     1.53792
H      0.03384    -4.59992     0.02878
C     -2.93596    -3.12749    -1.17125
O     -1.90300    -2.17115    -1.03180
H     -3.22742    -3.23402    -2.21745
H     -2.31257    -1.27256    -1.09980
H     -2.57875    -4.09357    -0.81081
H     -3.81559    -2.85100    -0.58889
C     -3.49891     0.51512     0.26357
O     -2.96278     0.21517    -1.02370
H     -2.82200     1.16842     0.81382
H     -2.38561     0.98131    -1.25305
H     -4.46854     1.00313     0.16411
H     -3.62301    -0.41384     0.82043
C      1.86430    -2.06150    -1.88734
O      2.26597    -1.83642    -0.54057
H      0.78023    -1.99545    -1.98170
H      1.51367    -2.14404     0.01204
H      2.32373    -1.30838    -2.52801
H      2.19412    -3.04733    -2.21767
C      4.28131     0.84062    -0.02123
O      2.87414     0.69253    -0.06299
H      4.71924     0.67439    -1.00791
H      2.68172    -0.25459    -0.26030
H      4.51986     1.85567     0.29472
H      4.73188     0.13666     0.68276
C     -0.13661     2.14865    -2.02127
O     -1.34517     2.27926    -1.29303
H     -0.37833     1.78686    -3.01851
H     -1.10882     2.57155    -0.38732
H      0.36035     3.11501    -2.11754
H      0.55208     1.44399    -1.54932
C     -0.31954     4.29158     1.40470
O     -0.63629     2.92511     1.20484
H     -0.29445     4.53240     2.46833
H      0.11823     2.39613     1.55491
H      0.65036     4.54202     0.96863
H     -1.08619     4.90368     0.93037
C      1.14775     0.25208     2.65456
O      1.43541     1.49368     2.01869
H      0.31832    -0.26243     2.16648
H      2.01442     1.27659     1.25638
H      2.01960    -0.40067     2.62258
H      0.88814     0.44286     3.69410
