 54
-1042.2855556526363
C      3.82702    -3.34444     1.42640
O      2.63247    -2.72310     0.97764
H      4.39746    -3.72607     0.58004
H      2.90204    -1.93338     0.44705
H      4.45263    -2.64339     1.98283
H      3.56879    -4.18044     2.07404
C      0.61041     3.40404    -3.41974
O      0.92776     2.55066    -2.34106
H      0.87380     2.95986    -4.38393
H      0.42572     1.72979    -2.46540
H     -0.45455     3.65322    -3.44286
H      1.17312     4.32903    -3.30576
C     -1.20813    -1.94972     0.21225
O     -1.46996    -1.34301     1.47582
H     -2.14700    -2.28341    -0.22618
H     -0.65019    -1.43914     1.99504
H     -0.73164    -1.24012    -0.46529
H     -0.55768    -2.81586     0.32366
C      2.69863    -0.28829    -1.51630
O      3.18997    -0.40907    -0.18788
H      3.28119    -0.95051    -2.15335
H      2.71742     0.23371     0.37335
H      1.64709    -0.57289    -1.58998
H      2.80330     0.73169    -1.88071
C      0.36347     1.43969     0.77785
O      1.48758     0.92215     1.49019
H     -0.46008     1.69940     1.44464
H      1.19506     0.19152     2.04766
H      0.68717     2.33138     0.24895
H     -0.01185     0.72921     0.04392
C     -2.62402     2.78767    -1.27011
O     -2.83944     1.38551    -1.36291
H     -3.24932     3.22680    -0.49251
H     -3.04209     1.06636    -0.45865
H     -1.58149     3.01982    -1.04609
H     -2.88947     3.23901    -2.22550
C     -4.30555     0.58850     2.08014
O     -3.23089     0.63701     1.15475
H     -5.05495    -0.14225     1.76866
H     -2.61485    -0.09588     1.36578
H     -3.94344     0.32337     3.07526
H     -4.76468     1.57412     2.12739
C      1.07938    -2.20015     3.96973
O      0.90503    -1.71550     2.65006
H      0.32868    -1.74140     4.60891
H      1.55243    -2.17172     2.05116
H      0.96028    -3.28423     4.00204
H      2.06981    -1.94296     4.34734
C     -1.10919    -0.07510    -3.99323
O     -0.75544     0.36421    -2.69545
H     -1.74259    -0.96312    -3.94584
H     -1.57578     0.66319    -2.24812
H     -1.63841     0.70528    -4.54576
H     -0.19581    -0.32812    -4.52989
