 60
-1158.091009846195
C      2.14515    -2.32640     1.21766
O      0.80291    -1.86490     1.07883
H      2.18355    -3.41400     1.18889
H      0.48569    -2.15557     0.20179
H      2.78778    -1.93219     0.42894
H      2.51843    -1.98851     2.18345
C     -0.20430    -2.29369    -4.99580
O     -1.14387    -1.31421    -4.61852
H      0.23591    -2.79616    -4.13045
H     -0.70185    -0.67315    -4.04859
H     -0.72053    -3.04146    -5.59712
H      0.60560    -1.87299    -5.60041
C      0.62188     4.61382     5.50846
O     -0.15233     3.78290     4.66878
H      0.09399     4.72562     6.45521
H      0.34688     3.62357     3.85816
H      1.60610     4.18079     5.71090
H      0.76412     5.60789     5.07328
C      0.94504     0.77468    -1.65833
O     -0.03246     0.10044    -2.43649
H      1.92865     0.39268    -1.92672
H     -0.90506     0.22791    -1.99103
H      0.92066     1.84335    -1.87163
H      0.78784     0.62988    -0.58905
C      2.94205    -3.69497    -3.00184
O      2.60831    -3.90529    -1.64496
H      2.29045    -4.26774    -3.66774
H      1.70707    -3.59122    -1.52361
H      2.87937    -2.63867    -3.28174
H      3.96648    -4.02847    -3.15490
C     -3.45839     0.52393    -2.05420
O     -2.35025     0.20216    -1.22434
H     -3.22050     0.23329    -3.07749
H     -2.36382     0.74658    -0.41139
H     -4.34834    -0.02353    -1.73712
H     -3.66960     1.59394    -2.02921
C     -0.05172     0.09612     3.58814
O      0.23088     0.40588     2.22247
H     -0.08685     1.01860     4.16492
H      0.45152    -0.45159     1.77494
H     -1.01084    -0.41820     3.67087
H      0.72625    -0.54930     3.99484
C     -1.29756    -2.95433    -1.52678
O      0.07082    -2.54072    -1.44790
H     -1.34375    -3.98468    -1.18821
H      0.17969    -1.72111    -1.95955
H     -1.91915    -2.33393    -0.88621
H     -1.65253    -2.88498    -2.55090
C      1.06642     3.50057     0.95819
O      1.09639     2.98878     2.27604
H      0.11838     3.28782     0.45985
H      0.92754     2.03333     2.22427
H      1.20745     4.57795     1.00905
H      1.87904     3.07968     0.36038
C     -2.41121     2.62541     1.85183
O     -1.92493     1.59519     1.00182
H     -2.90358     2.20600     2.73123
H     -1.17312     1.16553     1.44529
H     -1.60750     3.28079     2.18310
H     -3.13847     3.21185     1.29420
