 60
-1158.0970266253373
C      2.40338     2.14974     3.99791
O      2.29169     1.54548     2.72153
H      3.34296     2.69463     4.03763
H      1.38084     1.14803     2.64055
H      1.57982     2.84694     4.16228
H      2.39275     1.39274     4.78429
C      1.06562     3.62896     0.24749
O      2.36623     3.07986     0.31786
H      0.99094     4.19338    -0.68195
H      2.45693     2.65344     1.17898
H      0.29315     2.85579     0.24430
H      0.86366     4.31588     1.07469
C     -0.65663    -3.27895    -1.16105
O     -1.39044    -2.09750    -0.86995
H      0.26643    -3.27378    -0.59007
H     -2.23511    -2.13131    -1.38031
H     -1.23789    -4.15962    -0.88788
H     -0.42239    -3.33539    -2.22639
C     -3.46820    -1.82344    -3.66760
O     -3.63502    -1.99428    -2.26911
H     -2.63943    -1.14253    -3.88167
H     -4.02287    -1.15786    -1.92674
H     -3.25351    -2.79167    -4.11390
H     -4.37366    -1.41943    -4.12007
C      4.48847     0.40084     0.29144
O      3.62398    -0.24965     1.21139
H      5.01916    -0.35935    -0.28084
H      3.23144     0.42039     1.80110
H      3.93054     1.03761    -0.39662
H      5.22277     1.01340     0.81703
C     -0.04421    -0.98884     2.59697
O      0.01110     0.40338     2.26898
H     -1.04421    -1.24728     2.94643
H     -0.17646     0.46400     1.31256
H      0.20952    -1.60652     1.73931
H      0.66624    -1.19191     3.39739
C     -4.53485     0.14029     0.19743
O     -4.30841     0.34578    -1.19291
H     -4.76892     1.08379     0.69019
H     -3.59603     1.01363    -1.27757
H     -5.38477    -0.53085     0.31109
H     -3.66393    -0.30328     0.68564
C     -1.70194     2.40335    -2.51597
O     -2.18634     2.01684    -1.24342
H     -2.31233     3.22217    -2.88942
H     -1.49686     1.45110    -0.85017
H     -0.66610     2.74262    -2.46188
H     -1.75254     1.57222    -3.22439
C      3.21977    -3.42161     0.16856
O      2.24979    -2.44951     0.49559
H      3.85135    -3.10047    -0.66553
H      2.73188    -1.65302     0.78483
H      3.86697    -3.64587     1.02007
H      2.71218    -4.34082    -0.12499
C      0.92885     0.23566    -1.05824
O     -0.34385     0.20376    -0.40455
H      1.65106    -0.38989    -0.54326
H     -0.74683    -0.69277    -0.58089
H      0.84683    -0.12192    -2.08241
H      1.28721     1.26006    -1.06145
