 42
-810.6687455116859
C      0.04222     2.59476    -0.81512
O      0.15252     1.70824    -1.92195
H     -0.92050     3.10105    -0.87312
H      1.02082     1.25370    -1.83763
H      0.10639     2.06232     0.13659
H      0.82750     3.35044    -0.85205
C     -2.73433    -0.29266     1.71826
O     -1.54279    -1.05331     1.89764
H     -3.58271    -0.80651     2.17189
H     -1.43404    -1.58530     1.08217
H     -2.61532     0.67828     2.20126
H     -2.93072    -0.13932     0.65677
C      2.11095    -1.06905    -1.71877
O      2.36682     0.29591    -1.41908
H      1.30521    -1.47503    -1.10339
H      2.58310     0.34651    -0.46219
H      1.82027    -1.14512    -2.76678
H      3.00595    -1.67381    -1.56903
C     -2.15153    -0.22793    -3.44400
O     -1.76873    -0.09181    -2.08900
H     -2.35743     0.74604    -3.88914
H     -1.07920     0.61488    -2.04894
H     -1.36467    -0.71456    -4.02687
H     -3.05788    -0.82929    -3.49905
C     -1.97980    -3.33707    -1.07468
O     -1.35563    -2.19946    -0.51386
H     -1.77681    -4.19639    -0.43890
H     -1.50049    -1.45275    -1.13244
H     -3.06174    -3.19922    -1.14727
H     -1.58762    -3.54535    -2.07222
C      3.51100     1.54681     1.71482
O      2.72377     0.48543     1.21444
H      3.05624     2.51820     1.50329
H      1.86723     0.50171     1.69266
H      3.64908     1.45736     2.79342
H      4.49239     1.51266     1.24407
C      0.39463     0.82377     3.88463
O      0.41163     0.60065     2.48847
H      1.17386     1.54135     4.14132
H     -0.28652    -0.06736     2.29464
H     -0.56390     1.23996     4.19949
H      0.57337    -0.10047     4.43701
