 54
-1042.2846433512639
C      1.95413    -1.46736    -0.96590
O      1.23870    -2.10747     0.07706
H      2.23169    -2.21562    -1.70423
H      1.08368    -1.43491     0.76806
H      1.35256    -0.70206    -1.45737
H      2.86807    -1.00960    -0.58289
C     -2.41244    -0.96126    -3.33908
O     -1.03841    -0.79188    -3.04019
H     -2.85767    -0.03466    -3.71368
H     -0.97257    -0.35675    -2.18380
H     -2.50490    -1.71325    -4.12320
H     -2.97863    -1.29758    -2.46902
C     -0.99349    -3.91486    -1.70406
O     -1.09286    -3.22799    -0.46987
H     -0.84364    -3.21526    -2.52377
H     -0.20889    -2.85597    -0.26138
H     -0.17050    -4.63354    -1.68651
H     -1.91734    -4.46886    -1.87080
C      3.35070     4.17092     0.67650
O      2.12228     3.62897     1.12562
H      3.18504     5.05167     0.05377
H      1.57647     3.46341     0.32898
H      3.93993     4.46449     1.54409
H      3.91091     3.43406     0.09421
C     -4.27891    -2.70529     0.61512
O     -3.24852    -1.80182     0.27050
H     -3.96110    -3.40719     1.39189
H     -2.46569    -2.31262    -0.01305
H     -5.12632    -2.13431     0.99465
H     -4.61761    -3.28531    -0.25007
C      0.42088     3.57155    -2.28862
O      0.67182     3.02015    -1.00561
H      1.34383     4.00052    -2.67489
H      0.14299     2.20608    -0.91857
H      0.07936     2.79829    -2.97759
H     -0.33831     4.35367    -2.22687
C     -2.05962     1.28237    -0.09130
O     -0.78148     0.79016    -0.50648
H     -2.71007     0.46187     0.19631
H     -0.37729     0.32789     0.25177
H     -1.95294     1.98104     0.74079
H     -2.50649     1.81425    -0.92984
C      3.35950     1.17001     2.97383
O      2.00143     1.55185     2.79082
H      3.48533     0.11962     2.70354
H      2.01215     2.37011     2.24582
H      4.01279     1.77412     2.34611
H      3.64159     1.29731     4.01842
C     -0.49722    -0.76935     2.70303
O      0.43580    -0.24509     1.75913
H     -0.71700    -0.01975     3.46129
H      1.01747     0.42585     2.20800
H     -1.41949    -1.04822     2.19672
H     -0.07885    -1.64972     3.19149
