 36
-694.8485631909185
C      1.22205     3.88317     0.14756
O      0.44239     2.70332     0.25676
H      1.24317     4.42338     1.09513
H      0.81874     2.14946     0.96834
H      2.24733     3.64923    -0.14888
H      0.76973     4.52278    -0.60754
C      1.01294     1.31655    -2.78117
O      0.17447     0.92365    -1.70808
H      0.75224     2.31383    -3.13804
H      0.17913     1.65419    -1.05105
H      2.06467     1.31936    -2.48017
H      0.88016     0.61306    -3.60036
C     -1.98072    -0.07180     1.21067
O     -1.44226    -1.38250     1.33022
H     -2.17662     0.18975     0.17035
H     -0.57733    -1.37299     0.89321
H     -2.92188    -0.04974     1.75719
H     -1.31282     0.68013     1.63166
C      1.29936    -2.36714    -0.64940
O      0.93852    -1.10214    -0.10676
H      0.53009    -2.73431    -1.32532
H      0.67840    -0.48168    -0.82246
H      2.25294    -2.29857    -1.17518
H      1.40704    -3.06445     0.17841
C     -2.34545    -2.05627    -1.95135
O     -2.01058    -3.05994    -1.01455
H     -1.59373    -1.26603    -1.99946
H     -2.06636    -2.67931    -0.12984
H     -2.41678    -2.52176    -2.93385
H     -3.31209    -1.59676    -1.72571
C      1.10153     0.37403     3.24303
O      1.43105     0.79721     1.92442
H      0.26631    -0.32619     3.22743
H      1.43126     0.02002     1.34314
H      1.96123    -0.09854     3.72143
H      0.82113     1.25572     3.81722
