 30
-579.038107674875
C      2.76926     0.98472    -0.42865
O      1.73051     0.06186    -0.11370
H      3.37336     1.12795     0.46579
H      1.00808     0.18198    -0.74881
H      3.40424     0.58559    -1.22208
H      2.35599     1.94133    -0.74472
C     -2.47624    -0.97976     1.34131
O     -1.64633    -1.55751     0.34509
H     -2.61435    -1.66586     2.17718
H     -0.81254    -1.83257     0.78277
H     -2.05227    -0.04686     1.72232
H     -3.44589    -0.76906     0.89791
C      1.06101    -1.75180     2.84445
O      0.76614    -1.90105     1.46731
H      0.75776    -0.76592     3.20530
H      1.26157    -1.22471     0.96757
H      0.51463    -2.51525     3.39492
H      2.12831    -1.88218     3.02974
C     -0.32439     3.02946     0.01313
O     -0.10848     2.77935    -1.36092
H     -0.07847     4.07146     0.21126
H     -0.47712     1.90870    -1.54865
H     -1.36835     2.86522     0.29624
H      0.30731     2.39671     0.64117
C     -0.67050    -0.80519    -2.72785
O     -0.74363     0.02275    -1.57343
H     -0.53268    -0.16818    -3.59781
H     -1.18245    -0.50893    -0.86879
H      0.16752    -1.50034    -2.64643
H     -1.58992    -1.37804    -2.84119
