 60
-1158.0964614211034
C      4.07364    -1.19726    -0.19642
O      2.90665    -1.97708     0.01642
H      4.61654    -1.59491    -1.05432
H      2.27645    -1.39516     0.48793
H      3.82136    -0.15744    -0.40329
H      4.72871    -1.24085     0.67640
C      2.29115    -3.15435    -3.25384
O      1.67259    -2.25348    -2.35306
H      1.92174    -2.94439    -4.25690
H      2.12258    -2.33711    -1.48637
H      3.37804    -3.03870    -3.25037
H      2.04826    -4.19002    -3.00514
C      1.48959     1.07601     0.97242
O      1.08193    -0.29009     0.95232
H      0.71946     1.70259     1.41517
H      0.29445    -0.37425     0.39297
H      2.38730     1.15353     1.58286
H      1.72117     1.42519    -0.03141
C     -0.74109    -3.33081     0.46830
O     -1.71883    -2.37989     0.86169
H     -0.98841    -3.76764    -0.49952
H     -1.68655    -1.64667     0.22035
H      0.25200    -2.88456     0.40804
H     -0.71631    -4.12877     1.20765
C      0.10774     3.62735    -1.50033
O     -1.18400     3.21395    -1.89422
H      0.78895     2.77764    -1.43853
H     -1.63999     2.91578    -1.09848
H      0.49085     4.32442    -2.24554
H      0.10211     4.14000    -0.53401
C     -1.24094    -0.19137    -2.08073
O     -1.37583    -0.20012    -0.65665
H     -2.22295    -0.21541    -2.55081
H     -1.75435     0.65751    -0.36942
H     -0.71240     0.69719    -2.40769
H     -0.67766    -1.06962    -2.37949
C      1.85876     1.14275    -3.70709
O      2.08618     0.57144    -2.42936
H      1.41986     0.42808    -4.41007
H      1.92175    -0.38554    -2.45666
H      1.17143     1.98513    -3.61790
H      2.79460     1.51139    -4.13204
C     -3.72957     2.09649     0.58016
O     -2.31512     2.05845     0.44398
H     -4.16930     2.19116    -0.41137
H     -1.93838     1.91900     1.35074
H     -4.09574     1.18233     1.05030
H     -4.03220     2.95152     1.18398
C     -0.17012    -1.60378     3.75146
O     -1.39925    -1.15268     3.20468
H      0.61249    -1.64281     2.99572
H     -1.58786    -1.69007     2.40309
H      0.13567    -0.91011     4.53441
H     -0.29121    -2.59075     4.20066
C     -1.92028     2.07183     4.01319
O     -1.42903     1.47077     2.82770
H     -1.29359     1.80959     4.86682
H     -1.41004     0.48929     2.96089
H     -1.90226     3.15409     3.89240
H     -2.94375     1.75368     4.22235
