 36
-694.8528387514776
C      0.03332     0.72151    -3.11750
O     -1.16503     0.57563    -2.37157
H      0.89744     0.40092    -2.53299
H     -1.21541    -0.37030    -2.10391
H     -0.00481     0.13032    -4.03246
H      0.15467     1.77074    -3.38236
C      2.76890     1.13379    -0.24072
O      3.04917     0.03836     0.60876
H      3.28701     2.00794     0.15440
H      2.43861    -0.67469     0.39859
H      3.13879     0.95632    -1.25498
H      1.70018     1.36063    -0.28925
C      0.91670    -3.01570     1.49427
O      0.75409    -1.87781     0.66904
H      1.23007    -3.85078     0.87202
H      0.39206    -1.14667     1.22698
H      1.68159    -2.83603     2.25251
H     -0.01894    -3.27686     1.99299
C     -2.02161     2.89459     0.06292
O     -1.06015     1.86041    -0.04552
H     -1.95650     3.33204     1.05841
H     -1.15273     1.44535    -0.93370
H     -1.82968     3.67742    -0.67351
H     -3.03235     2.50917    -0.08641
C     -2.28770    -1.93655    -0.45187
O     -1.13561    -1.86166    -1.28420
H     -2.55318    -2.97697    -0.25777
H     -0.36170    -1.94397    -0.69779
H     -2.11616    -1.42785     0.49809
H     -3.12041    -1.45845    -0.96741
C      0.57869     0.92615     2.81409
O     -0.25456     0.22630     1.90121
H      0.90494     0.22971     3.58578
H     -0.56910     0.85739     1.21729
H      1.45533     1.33004     2.31074
H      0.03350     1.73763     3.29962
