 54
-1042.2790812344608
C      3.05493    -2.38310     2.57626
O      2.34186    -1.54743     1.68367
H      2.43906    -3.25167     2.80318
H      2.96908    -0.85149     1.38672
H      3.98853    -2.72680     2.12621
H      3.28946    -1.86150     3.50820
C     -1.10835    -1.12942     1.90898
O      0.01385    -0.29835     2.17718
H     -2.00864    -0.51800     1.86293
H      0.83158    -0.81341     2.00756
H     -0.99731    -1.65340     0.95872
H     -1.23673    -1.86235     2.70801
C     -3.78330    -3.09684    -0.01075
O     -3.62778    -3.18143    -1.42389
H     -3.69186    -2.04865     0.26176
H     -3.73964    -4.09376    -1.69031
H     -4.76191    -3.45861     0.31070
H     -3.00613    -3.65400     0.51793
C      2.72702    -0.23957    -1.99532
O      2.98650     1.08885    -1.55556
H      3.68135    -0.70266    -2.23664
H      2.14259     1.56869    -1.52817
H      2.23217    -0.82979    -1.21951
H      2.09931    -0.24374    -2.88822
C     -0.55971     2.90234    -2.01762
O      0.40239     2.11130    -1.34100
H     -0.44125     3.95509    -1.76111
H      0.19411     2.17889    -0.37138
H     -0.41213     2.78801    -3.08933
H     -1.57167     2.58875    -1.75949
C      3.58486     1.62529     1.75786
O      3.87354     0.50739     0.92592
H      2.52668     1.88969     1.72105
H      3.67568     0.77790     0.00483
H      3.85026     1.36717     2.78171
H      4.17629     2.49071     1.45778
C     -3.96236     0.36545    -1.44550
O     -3.03042     0.54645    -0.39850
H     -3.66345     0.90814    -2.34805
H     -2.21385     0.07479    -0.61728
H     -4.08875    -0.68722    -1.70369
H     -4.92406     0.76738    -1.12482
C     -0.73900    -1.22672    -2.69739
O     -0.51647    -0.63092    -1.42668
H     -0.86793    -0.47365    -3.48082
H     -0.11011     0.24256    -1.54385
H      0.09877    -1.87065    -2.97201
H     -1.63615    -1.84011    -2.65305
C     -1.31548     2.75526     1.71550
O     -0.15406     2.14208     1.17637
H     -1.32230     2.68958     2.80457
H     -0.06925     1.24498     1.58242
H     -1.31532     3.81038     1.44395
H     -2.21714     2.28421     1.32542
