 42
-810.6634419262085
C     -1.28405    -2.61316    -2.97480
O     -1.49231    -1.60080    -2.00823
H     -2.02580    -3.40748    -2.87353
H     -1.45541    -2.02696    -1.12239
H     -1.37995    -2.17350    -3.96534
H     -0.28933    -3.05669    -2.87709
C      2.05610    -1.49955    -0.35587
O      1.38861    -1.87799     0.84254
H      2.98358    -2.06555    -0.45510
H      1.50912    -1.15036     1.49063
H      1.42602    -1.71631    -1.21670
H      2.28395    -0.43510    -0.35626
C     -1.20101    -4.06544     0.64581
O     -1.09434    -2.67949     0.37530
H     -0.50883    -4.64525     0.02935
H     -0.17900    -2.39069     0.60543
H     -0.98700    -4.27395     1.69501
H     -2.21894    -4.38554     0.42980
C     -0.38212     1.67984    -2.47327
O     -0.08119     0.62385    -1.57130
H     -0.06219     2.62631    -2.03882
H     -0.58156    -0.17881    -1.84346
H      0.14364     1.53715    -3.41922
H     -1.45504     1.73239    -2.66676
C     -1.81304     0.59439     1.26778
O     -0.54964     1.17699     0.95413
H     -1.68636    -0.40012     1.69316
H     -0.33762     0.94161     0.01878
H     -2.31943     1.23289     1.98870
H     -2.42317     0.51490     0.37002
C      2.56198     1.24476     2.01497
O      1.53557     0.31971     2.33853
H      2.32854     1.76660     1.08637
H      0.70608     0.70244     1.98862
H      2.67892     1.98293     2.80976
H      3.50629     0.71278     1.89568
C      0.67910     4.74006     0.89608
O     -0.43649     4.07256     0.34167
H      1.61909     4.33325     0.51010
H     -0.45702     3.17400     0.68550
H      0.62079     5.78942     0.61384
H      0.69780     4.67827     1.98891
