 42
-810.6652740993093
C      3.14984     1.51581     0.67246
O      2.14275     0.79978    -0.02257
H      3.46632     2.35314     0.05560
H      1.91520     0.00053     0.52112
H      2.76957     1.89583     1.62254
H      4.00858     0.87402     0.87005
C      1.12815    -1.12528     2.79297
O      1.27072    -1.17836     1.37991
H      0.53043    -0.26741     3.09791
H      0.46792    -1.59347     0.99047
H      0.65279    -2.03201     3.16661
H      2.11923    -1.04799     3.23646
C      0.42212    -2.51417    -3.09407
O     -0.49495    -1.61518    -2.48456
H      0.87155    -2.06458    -3.98050
H     -0.07258    -0.73761    -2.52340
H      1.22232    -2.78244    -2.39974
H     -0.11490    -3.41337    -3.38883
C      0.94171     1.93582    -3.09364
O      0.92635     0.66853    -2.45963
H      0.02236     2.04469    -3.66663
H      1.46011     0.72723    -1.64717
H      0.99388     2.74028    -2.35698
H      1.79264     2.01889    -3.77135
C     -2.18645    -2.21954     0.59942
O     -0.83683    -2.24951     0.15143
H     -2.55424    -3.23408     0.75713
H     -0.81896    -2.11535    -0.81761
H     -2.25128    -1.66845     1.53554
H     -2.82770    -1.72880    -0.13506
C     -2.87745     1.48805     3.16469
O     -1.86172     0.55361     2.86772
H     -3.18675     1.35136     4.20028
H     -1.31982     0.92516     2.15254
H     -2.53937     2.52060     3.04212
H     -3.75414     1.33675     2.52573
C     -1.41779     1.34365    -0.31795
O     -0.53352     1.66087     0.75201
H     -1.31627     0.30917    -0.63666
H      0.37746     1.49186     0.47836
H     -2.43898     1.49851     0.03012
H     -1.24895     1.99313    -1.17566
