 48
-926.4803379040741
C      0.06681    -3.07095     2.51927
O      0.62327    -2.78161     1.24821
H     -0.99587    -2.82635     2.54133
H     -0.09658    -2.92407     0.59115
H      0.18986    -4.12828     2.75606
H      0.58170    -2.48258     3.28055
C      1.70180     1.58479    -1.94004
O      0.43692     2.19005    -2.15756
H      2.16268     1.37311    -2.90362
H      0.22291     2.66613    -1.32661
H      2.35797     2.24921    -1.37912
H      1.60693     0.65121    -1.38228
C     -1.69793     0.24397     0.54013
O     -2.40001    -0.51911    -0.43704
H     -2.02132     1.28392     0.55047
H     -2.19347    -0.12621    -1.31460
H     -1.90300    -0.19015     1.52024
H     -0.61872     0.22493     0.37518
C     -0.81257    -0.69457    -3.37659
O     -1.46956     0.40275    -2.76519
H     -1.54530    -1.47399    -3.57771
H     -0.79551     1.09997    -2.61053
H     -0.35679    -0.39875    -4.32178
H     -0.03394    -1.11222    -2.73170
C     -2.52000    -3.93045     0.04039
O     -1.48683    -3.02825    -0.31289
H     -3.25256    -4.01647    -0.76313
H     -1.89477    -2.13534    -0.39736
H     -2.08379    -4.91148     0.21957
H     -3.03607    -3.60081     0.94563
C      0.82886     1.59206     3.16645
O      1.48988     1.80487     1.93115
H      0.59482     2.55719     3.61415
H      1.76707     0.92740     1.59325
H     -0.10313     1.04212     3.01899
H      1.45814     1.03105     3.85854
C      0.29757     4.65836     0.41989
O      0.07205     3.27479     0.21788
H     -0.14890     5.20837    -0.40710
H      0.60855     2.78660     0.87851
H     -0.16666     4.99522     1.34983
H      1.36599     4.88454     0.45822
C      3.19907    -0.96929     0.22679
O      2.05660    -0.58685     0.97397
H      3.85188    -1.60844     0.82074
H      1.51191    -1.39807     1.10067
H      2.91157    -1.50805    -0.67930
H      3.75104    -0.07589    -0.06859
