 60
-1158.092562871613
C     -2.69701     2.87440    -0.31791
O     -1.78882     3.06930     0.74918
H     -2.81578     3.78718    -0.90444
H     -0.88600     3.07991     0.39447
H     -2.38420     2.06942    -0.98274
H     -3.66165     2.61366     0.11351
C      1.81195     3.09512    -0.97238
O      0.86472     2.68935     0.00420
H      2.27489     2.22457    -1.44345
H      1.37166     2.29674     0.76619
H      1.30117     3.68563    -1.72914
H      2.59459     3.69918    -0.51536
C      4.54965    -0.99149     1.04424
O      3.14031    -0.85821     1.12995
H      5.00323    -0.46819     1.88499
H      2.76429    -1.18245     0.28294
H      4.83889    -2.04290     1.09341
H      4.93221    -0.56272     0.11561
C     -1.50005    -4.80372    -0.08908
O     -1.39334    -3.41028    -0.29844
H     -0.67131    -5.35100    -0.55145
H     -1.27376    -3.25759    -1.25210
H     -1.48215    -4.99863     0.98289
H     -2.43600    -5.20389    -0.49053
C     -0.64448    -0.19601     0.65825
O     -0.35644     0.20855    -0.69470
H     -1.19020     0.58359     1.18310
H      0.02782     1.10017    -0.66650
H     -1.23749    -1.10374     0.61545
H      0.27384    -0.41822     1.19642
C      1.79541    -2.99079    -1.31583
O      1.99406    -1.58607    -1.14784
H      1.24899    -3.20160    -2.23405
H      1.14807    -1.13233    -1.25198
H      2.77704    -3.45793    -1.37058
H      1.24826    -3.40827    -0.47120
C     -3.43937    -0.78201    -1.48873
O     -2.32151    -0.55337    -2.33275
H     -3.47877    -1.82141    -1.16044
H     -1.61464    -0.17696    -1.77122
H     -3.40575    -0.14700    -0.60289
H     -4.34920    -0.55440    -2.04103
C     -2.12176    -3.69817    -3.80119
O     -1.23997    -2.91036    -3.02199
H     -2.10677    -3.38602    -4.84656
H     -1.62140    -2.00907    -2.96505
H     -1.79566    -4.73576    -3.74597
H     -3.14726    -3.63176    -3.42835
C     -0.02977     4.63025     3.12321
O     -0.81603     3.48447     3.38355
H     -0.64442     5.48969     2.84435
H     -1.31786     3.29557     2.58072
H      0.51603     4.88429     4.03247
H      0.69705     4.45211     2.32625
C      1.63780     1.37095     3.20494
O      2.18036     1.50225     1.89292
H      2.24228     0.69252     3.80694
H      2.56632     0.63285     1.63363
H      1.61818     2.34405     3.68444
H      0.61689     0.98919     3.17107
