 60
-1158.1002471869922
C      0.92316     4.27449     1.09807
O      1.12968     4.38502    -0.30634
H      1.86068     4.50352     1.60219
H      0.25989     4.22505    -0.73416
H      0.16874     4.98718     1.43129
H      0.60594     3.26814     1.37585
C     -0.31249    -0.67569     2.18389
O     -0.14455     0.57183     1.52085
H     -1.35003    -0.79312     2.48982
H      0.78850     0.61309     1.22153
H     -0.05038    -1.51259     1.53679
H      0.31359    -0.71710     3.07625
C      4.08918     3.19771    -1.63635
O      2.93953     2.59738    -1.06634
H      3.81857     3.80270    -2.50438
H      2.32199     3.32496    -0.82528
H      4.59878     3.83368    -0.90918
H      4.76973     2.41033    -1.95791
C     -0.63305    -4.71883     2.18199
O     -1.40601    -4.15779     1.14061
H     -0.05779    -5.57652     1.82632
H     -0.78686    -3.81488     0.46337
H      0.05951    -3.98537     2.60378
H     -1.29988    -5.05795     2.97414
C      0.94542    -3.88303    -1.67498
O      0.26491    -3.17063    -0.65970
H      2.00909    -3.63072    -1.66066
H     -0.04325    -2.32181    -1.03859
H      0.84060    -4.95113    -1.49129
H      0.54252    -3.65352    -2.66191
C     -4.16292    -3.17097     2.85689
O     -3.43353    -2.50761     1.85046
H     -4.56375    -4.12853     2.51098
H     -2.75372    -3.12803     1.54205
H     -3.54875    -3.36291     3.74222
H     -4.99981    -2.54021     3.15573
C     -0.65969     3.05475    -2.74136
O     -1.12514     3.56795    -1.49715
H     -1.14530     2.10651    -2.97850
H     -1.51056     2.81877    -1.01307
H     -0.87856     3.77565    -3.52699
H      0.42092     2.89172    -2.70801
C      0.74432    -0.26598    -2.30742
O     -0.40983    -0.82044    -1.69497
H      1.19861     0.51974    -1.70478
H     -0.93788    -0.10388    -1.30488
H      1.47938    -1.05762    -2.44580
H      0.50774     0.12966    -3.29751
C      3.00383    -0.63387     0.30401
O      2.37864     0.59070     0.65606
H      3.58519    -0.52664    -0.61300
H      2.67812     1.28854     0.04087
H      3.67435    -0.94931     1.10294
H      2.26339    -1.41797     0.14667
C     -3.13954     0.66547    -0.11694
O     -1.83921     1.19391    -0.35577
H     -3.71655     1.35297     0.50239
H     -1.28006     1.02596     0.44103
H     -3.63517     0.55815    -1.07971
H     -3.09704    -0.30777     0.37118
