 24
-463.230732521907
C      2.35584     0.67847    -1.42665
O      1.79990     0.56952    -0.12615
H      1.60664     0.47951    -2.19813
H      1.49399    -0.35640    -0.01373
H      2.73152     1.69161    -1.55384
H      3.18342    -0.02022    -1.55584
C     -0.67351     2.36303     1.43630
O     -0.57799     1.80120     0.13740
H     -0.46451     1.61820     2.20938
H      0.34632     1.49272     0.01867
H      0.02477     3.19290     1.55389
H     -1.68582     2.73721     1.57327
C     -2.35753    -0.67520    -1.43731
O     -1.80862    -0.57850    -0.13272
H     -2.73249    -1.68696    -1.57628
H     -1.50232     0.34605    -0.01056
H     -3.18475     0.02428    -1.56465
H     -1.60433    -0.46922    -2.20301
C      0.67421    -2.36943     1.42869
O      0.56986    -1.81281     0.12807
H      1.68801    -2.74148     1.56067
H     -0.35486    -1.50411     0.01305
H      0.46946    -1.62196     2.20026
H     -0.02150    -3.20014     1.55445
