 36
-694.8543978405302
C      0.78300     0.78751    -3.45661
O     -0.10570    -0.16529    -2.91427
H      1.28906     0.33851    -4.30887
H     -0.51301     0.23531    -2.13647
H      0.25803     1.68356    -3.80049
H      1.53872     1.09946    -2.73033
C      0.55906     2.61724     2.01950
O      0.82367     2.13567     0.70949
H      0.08235     3.59214     1.94595
H      1.41293     1.34850     0.81533
H     -0.10312     1.93477     2.55974
H      1.48459     2.72180     2.58500
C      2.55719    -0.61090    -0.34704
O      2.04999    -0.17981     0.90995
H      3.19829     0.17572    -0.74429
H      1.46696    -0.89470     1.25495
H      3.15965    -1.51123    -0.22795
H      1.75587    -0.81208    -1.06019
C     -1.94471    -2.26918    -0.95039
O     -1.72866    -1.46685     0.20291
H     -2.84461    -1.94838    -1.47869
H     -1.57495    -0.54958    -0.08923
H     -1.09878    -2.21900    -1.63691
H     -2.08163    -3.29944    -0.62699
C     -2.23830     1.97166    -0.71753
O     -1.16130     1.06032    -0.59105
H     -3.05735     1.47125    -1.23064
H     -0.40576     1.51540    -0.13028
H     -2.58518     2.30435     0.26128
H     -1.93373     2.83950    -1.30362
C     -0.04261    -1.95735     3.07504
O      0.36823    -2.08762     1.72576
H      0.78842    -2.22938     3.72295
H     -0.43230    -1.97331     1.16791
H     -0.34309    -0.92871     3.29701
H     -0.88347    -2.61736     3.29256
