 30
-579.0374719119851
C      1.87233     1.29762    -1.46970
O      1.26998     0.49035    -2.46648
H      2.13883     2.24975    -1.92920
H      1.05415    -0.36020    -2.07236
H      1.19718     1.49379    -0.63466
H      2.78662     0.84232    -1.07824
C     -2.05756     1.00245    -1.47287
O     -1.75999     0.14654    -0.37326
H     -1.15508     1.47414    -1.86027
H     -1.45727     0.69978     0.37410
H     -2.50633     0.39838    -2.25937
H     -2.77150     1.77284    -1.17972
C      0.79042    -1.52127     2.39878
O      1.22574    -0.59737     1.40452
H     -0.28949    -1.45729     2.55203
H      1.07239    -1.00790     0.53806
H      1.04447    -2.54484     2.12121
H      1.29764    -1.27858     3.33131
C     -0.64683     2.09176     2.88582
O     -0.51600     1.48966     1.60756
H     -0.84871     3.15332     2.75370
H      0.22991     0.86003     1.63113
H     -1.47354     1.64303     3.44049
H      0.27138     1.98099     3.46540
C     -0.42603    -2.83424    -1.65493
O      0.05801    -1.71568    -0.93027
H     -0.72947    -2.53950    -2.66206
H     -0.70060    -1.10659    -0.77079
H      0.37606    -3.56405    -1.72589
H     -1.27781    -3.28655    -1.14496
