 60
-1158.0909140407698
C     -2.65082    -3.80697    -3.86138
O     -1.91544    -3.39011    -2.72752
H     -2.02432    -4.33476    -4.58782
H     -1.12250    -2.91603    -3.02190
H     -3.43771    -4.48471    -3.53116
H     -3.12204    -2.95735    -4.36697
C     -2.19628     3.05453     1.97141
O     -0.90083     3.53902     1.64857
H     -2.59780     3.66547     2.77759
H     -0.60186     3.06866     0.84750
H     -2.86769     3.12893     1.11466
H     -2.15695     2.01489     2.30293
C      4.09053     3.24454     2.00605
O      3.13035     2.20842     2.03795
H      4.92717     2.92613     1.38476
H      2.37582     2.52913     2.56496
H      3.67774     4.16602     1.58322
H      4.47103     3.47059     3.00639
C     -1.65845     0.43044    -3.06883
O     -1.79165     0.56485    -1.65211
H     -0.63202     0.61504    -3.38932
H     -1.76483    -0.30485    -1.22397
H     -1.94312    -0.56736    -3.39382
H     -2.31321     1.16257    -3.53700
C      1.04339    -3.81212    -0.60752
O      1.07078    -2.40461    -0.76879
H      0.15915    -4.25512    -1.07126
H      0.25669    -2.06004    -0.35319
H      1.93324    -4.22900    -1.07634
H      1.06184    -4.08642     0.44923
C      1.02511    -0.45378     2.47960
O     -0.22296     0.09397     2.03641
H      1.56520    -0.93251     1.66243
H     -0.04634     0.86011     1.46769
H      1.65736     0.31030     2.92268
H      0.79248    -1.20849     3.22657
C     -2.23597    -2.46397     0.64211
O     -1.26413    -1.50326     0.25533
H     -2.42715    -3.10793    -0.21203
H     -1.01526    -0.93472     1.02308
H     -1.87278    -3.06903     1.47606
H     -3.16550    -1.97809     0.94392
C      1.42386    -2.57264    -4.23528
O      0.45456    -1.98691    -3.38498
H      1.94426    -3.39616    -3.74226
H      0.81520    -1.97496    -2.47734
H      0.91858    -2.96166    -5.11883
H      2.15986    -1.83219    -4.55337
C      0.44442     2.42708     4.54183
O      1.01813     3.12530     3.45610
H     -0.14245     1.57376     4.20119
H      0.29521     3.39128     2.85180
H      1.24874     2.07018     5.18302
H     -0.19623     3.08326     5.13423
C      1.23164     1.40783    -0.77388
O     -0.01949     1.87822    -0.26149
H      2.03437     1.78439    -0.14930
H     -0.72620     1.47143    -0.81640
H      1.26695     0.31988    -0.79103
H      1.37708     1.77527    -1.78863
