 60
-1158.0940018639528
C      1.04267     4.09678     1.98440
O      0.29856     3.28286     1.09503
H      1.27771     5.03193     1.47924
H      0.14689     2.41948     1.51989
H      0.47366     4.33011     2.88708
H      1.97877     3.61266     2.27293
C      2.32911     3.86834    -1.61807
O      1.42114     2.81212    -1.37982
H      3.33733     3.47177    -1.76251
H      0.97212     2.97884    -0.53456
H      2.04745     4.41709    -2.51957
H      2.35917     4.57125    -0.78316
C     -0.32966    -4.10287    -0.29690
O     -1.04680    -2.87396    -0.19417
H      0.66482    -3.97611     0.12860
H     -1.65588    -2.78969    -0.96310
H     -0.85194    -4.88590     0.25317
H     -0.23604    -4.41195    -1.33964
C     -1.84722    -1.46551    -3.26885
O     -2.57411    -2.17026    -2.27697
H     -1.30471    -0.61806    -2.84932
H     -3.25706    -1.55959    -1.92208
H     -1.13471    -2.15244    -3.72335
H     -2.51310    -1.09859    -4.04914
C      3.36238     0.80349     1.34190
O      2.83152    -0.14327     2.26103
H      4.11358     0.30886     0.72742
H      1.93815     0.14131     2.49259
H      2.59567     1.21904     0.68796
H      3.84657     1.61626     1.88359
C     -1.16945     0.15747     2.42101
O      0.08229     0.66485     1.95748
H     -1.99093     0.75914     2.03155
H      0.22256     0.23143     1.08624
H     -1.29666    -0.87239     2.09050
H     -1.18511     0.18867     3.50786
C     -4.42394    -0.85215     0.21054
O     -4.15861    -0.34902    -1.09250
H     -5.07531    -0.17135     0.75951
H     -3.51599     0.38129    -0.97876
H     -4.92368    -1.81629     0.12209
H     -3.50047    -0.98686     0.77767
C     -1.82207     2.37391    -1.51453
O     -2.08989     1.28128    -0.64041
H     -2.73669     2.62632    -2.04908
H     -1.32118     0.68626    -0.61679
H     -1.49846     3.23927    -0.93869
H     -1.04363     2.12025    -2.23634
C      3.97099    -3.34727     1.58762
O      2.86595    -2.61460     1.10075
H      4.92114    -2.88660     1.29878
H      2.85262    -1.76540     1.57256
H      3.95050    -3.43153     2.67752
H      3.93810    -4.35140     1.16531
C      1.18114    -0.61988    -1.25720
O      0.05800    -0.55477    -0.37687
H      2.08345    -0.84369    -0.69614
H     -0.30806    -1.47555    -0.26498
H      1.04169    -1.39957    -2.00260
H      1.28544     0.33820    -1.75759
