 42
-810.6693180657799
C     -0.25635     2.46899    -0.33289
O      0.11910     2.17131    -1.67416
H     -1.30921     2.22470    -0.18521
H      0.98591     1.71308    -1.62788
H      0.34109     1.89738     0.37837
H     -0.12209     3.53321    -0.13920
C     -2.52550    -1.42834     2.41024
O     -1.57067    -0.75823     1.60636
H     -2.55313    -2.49706     2.19054
H     -1.69095    -1.08032     0.68334
H     -2.25651    -1.30079     3.45952
H     -3.52315    -1.01393     2.25455
C      1.95544    -0.71162    -1.73206
O      2.27371     0.61423    -1.33346
H      2.47194    -1.43876    -1.10569
H      2.50478     0.56621    -0.37799
H      0.88208    -0.90416    -1.67171
H      2.28245    -0.85550    -2.76184
C     -0.99150    -0.08687    -3.85060
O     -1.58017     0.37009    -2.64013
H     -1.54266     0.29500    -4.71073
H     -1.02990     1.12481    -2.32366
H      0.04532     0.24189    -3.92236
H     -1.01437    -1.17797    -3.87723
C     -2.97547    -2.35969    -1.23896
O     -1.86171    -1.57179    -0.86125
H     -3.08593    -3.17797    -0.52802
H     -1.77797    -0.84605    -1.52351
H     -3.89579    -1.77108    -1.24314
H     -2.82973    -2.78829    -2.23162
C      2.81792     1.71712     1.89341
O      2.69421     0.44912     1.27335
H      1.88652     2.00697     2.38527
H      2.02616    -0.05677     1.79032
H      3.61545     1.69825     2.63855
H      3.06365     2.46707     1.13997
C      0.61940    -0.13391     3.97403
O      0.80487    -0.69132     2.68632
H      1.55611     0.30838     4.31404
H     -0.08347    -0.73444     2.26062
H     -0.14709     0.64382     3.96026
H      0.32670    -0.90527     4.68906
