 60
-1158.093998924009
C      2.96011    -1.77205    -2.92354
O      1.62794    -1.82573    -2.43344
H      3.12829    -2.57360    -3.64149
H      1.10419    -1.13564    -2.90788
H      3.16119    -0.81545    -3.40571
H      3.65725    -1.89303    -2.09287
C     -1.86943    -3.32551     1.40842
O     -1.43625    -2.03923     0.99640
H     -2.95848    -3.35749     1.40307
H     -0.55634    -2.16065     0.57681
H     -1.48850    -4.09158     0.73287
H     -1.51713    -3.53355     2.42069
C      2.64279     1.55485    -1.10806
O      2.69800     2.05053     0.21983
H      2.96895     0.51388    -1.15944
H      2.23879     1.40395     0.78266
H      1.63463     1.61835    -1.52289
H      3.31298     2.15519    -1.71983
C      1.96052    -3.10284     0.55741
O      0.97465    -2.23819     0.01094
H      2.94654    -2.64487     0.48468
H      1.21399    -2.09880    -0.94793
H      1.74383    -3.28468     1.60808
H      1.97220    -4.05400     0.02854
C      1.60764    -0.40264     2.78664
O      1.27392     0.16917     1.53137
H      0.81676    -1.05758     3.15658
H      1.06811    -0.54789     0.91251
H      2.53643    -0.96965     2.72603
H      1.74936     0.40414     3.50485
C     -1.08314     2.01171    -0.43079
O     -1.30600     1.20151    -1.58079
H     -0.01979     2.18989    -0.30861
H     -1.99760     0.55089    -1.34650
H     -1.56388     2.98079    -0.55123
H     -1.46205     1.54387     0.47676
C     -1.72594     1.02703     3.31782
O     -2.56597     0.10932     2.64635
H     -1.69180     0.81295     4.38903
H     -2.02648    -0.54424     2.18921
H     -0.70940     1.01178     2.92482
H     -2.12559     2.03448     3.18844
C     -1.01694    -0.62705    -4.18721
O      0.07120     0.02406    -3.53257
H     -1.46580     0.03300    -4.92955
H     -0.33713     0.57388    -2.82902
H     -0.64048    -1.51801    -4.69044
H     -1.77607    -0.92296    -3.46111
C     -4.21708    -0.14677    -0.25117
O     -3.02661    -0.69746    -0.79730
H     -4.00911     0.46784     0.62368
H     -2.56923    -1.20614    -0.10585
H     -4.68616     0.47060    -1.01647
H     -4.91937    -0.93421     0.03050
C      0.75775     3.98968     2.28305
O      1.31437     4.38531     1.05408
H      0.13909     4.80531     2.65510
H      1.89424     3.67515     0.74916
H      0.12336     3.10595     2.17650
H      1.52345     3.77179     3.03409
