 54
-1042.2772335899049
C      1.91062    -2.83306    -2.54329
O      0.96676    -2.97674    -1.49345
H      2.89032    -2.54943    -2.15525
H      0.93049    -2.12403    -1.01417
H      2.01726    -3.79499    -3.04181
H      1.58828    -2.08901    -3.27383
C     -0.83375     0.69695    -4.77399
O     -0.31157    -0.27537    -3.88478
H     -0.11965     0.83762    -5.58493
H     -0.92598    -0.37826    -3.14331
H     -1.78852     0.37752    -5.20448
H     -0.98398     1.65986    -4.27495
C     -3.39581    -0.47193    -1.23388
O     -2.09209    -0.73121    -1.72014
H     -3.59170    -1.02677    -0.31468
H     -2.02604    -1.70760    -1.88919
H     -3.48433     0.59230    -1.02641
H     -4.14819    -0.74407    -1.97523
C      0.04053     1.51424     5.61791
O      0.04100     0.79617     4.39530
H      0.63551     0.96004     6.34019
H     -0.54497     1.27585     3.77379
H      0.47268     2.51060     5.49119
H     -0.97290     1.62045     6.00690
C      1.37062     0.48609    -1.00902
O      0.56282    -0.54891    -0.43401
H      2.38809     0.35433    -0.64761
H     -0.36301    -0.38881    -0.67105
H      1.37074     0.42283    -2.09469
H      1.02161     1.46567    -0.69490
C     -1.91658     1.44485     1.61168
O     -1.20766     2.29007     2.50374
H     -2.87379     1.19566     2.06548
H     -0.41573     2.61430     2.03116
H     -2.09922     1.94944     0.66215
H     -1.36753     0.52118     1.41639
C     -1.57147    -3.55391    -3.69410
O     -1.56377    -3.21203    -2.31349
H     -0.94779    -2.87284    -4.27181
H     -0.63250    -3.28927    -2.00025
H     -1.21229    -4.57290    -3.83823
H     -2.59591    -3.49678    -4.05515
C      2.60745    -0.32331     2.39310
O      2.30957     0.94559     2.95580
H      3.54942    -0.23811     1.85296
H      1.56979     0.82221     3.58886
H      2.73339    -1.07335     3.17516
H      1.82628    -0.65574     1.70988
C      1.75369     4.08535     1.84426
O      1.22831     2.84628     1.39693
H      2.83247     4.12994     1.68924
H      1.71829     2.13260     1.86479
H      1.28541     4.88427     1.27323
H      1.54995     4.24649     2.90633
