 24
-463.2307367848258
C      2.35823     0.67255     1.43540
O      1.80737     0.57093     0.13202
H      2.71162     1.69164     1.57890
H      1.49866    -0.35327     0.01337
H      1.61198     0.44644     2.20216
H      3.20083    -0.00954     1.55659
C     -0.66711     2.36461    -1.43543
O     -0.56952     1.80622    -0.13511
H      0.02050     3.20343    -1.55174
H      0.35476     1.49777    -0.01648
H     -0.44581     1.62120    -2.20630
H     -1.68349     2.72569    -1.57762
C     -2.35786    -0.67269     1.43472
O     -1.80585    -0.56984     0.13202
H     -2.71006    -1.69232     1.57681
H     -1.49818     0.35486     0.01436
H     -1.61289    -0.44611     2.20268
H     -3.20148     0.00828     1.55513
C      0.66700    -2.36451    -1.43575
O      0.56905    -1.80604    -0.13551
H      1.68392    -2.72432    -1.57769
H     -0.35519    -1.49715    -0.01740
H     -0.01963    -3.20430    -1.55197
H      0.44477    -1.62116    -2.20654
