 42
-810.6646354699739
C     -2.86477    -1.55169    -0.34166
O     -1.68559    -1.30188    -1.08390
H     -2.98047    -0.84846     0.48634
H     -0.98073    -1.09993    -0.44710
H     -3.71869    -1.44444    -1.00732
H     -2.86956    -2.56482     0.06817
C      0.85673    -2.23536     1.12347
O      0.35752    -0.94978     0.77489
H      1.20653    -2.73936     0.22474
H      0.04874    -0.48295     1.59750
H      1.68344    -2.14877     1.82830
H      0.06678    -2.83664     1.57335
C      0.06328    -3.61378    -3.41638
O     -0.11893    -3.56419    -2.01491
H      0.14476    -2.61160    -3.84846
H     -0.78425    -2.89152    -1.82045
H      0.98818    -4.15244    -3.62330
H     -0.76016    -4.13409    -3.91337
C      1.31252    -0.12884    -2.31324
O      1.67504     0.48970    -1.08606
H      1.53056    -1.19611    -2.29464
H      1.28166    -0.03762    -0.36800
H      0.24896     0.00139    -2.52222
H      1.88980     0.33499    -3.11073
C      0.60231     0.87440     3.73544
O     -0.40367     0.45803     2.82147
H      1.49814     1.20924     3.20578
H     -0.69836     1.27033     2.34220
H      0.23963     1.69209     4.35730
H      0.86212     0.03525     4.37674
C     -2.11552     2.16697     0.40676
O     -0.98507     2.46412     1.21409
H     -1.91352     1.34390    -0.28108
H     -0.24988     2.71655     0.60994
H     -2.94260     1.89049     1.06015
H     -2.41649     3.04018    -0.17147
C      2.15437     3.56894     0.11391
O      1.00550     2.99362    -0.48492
H      1.97345     4.62973     0.27392
H      1.27413     2.11337    -0.82802
H      2.37380     3.09476     1.07544
H      3.02637     3.45674    -0.53146
