 36
-694.8414705760185
C      2.52646     1.99293     0.53031
O      1.31418     1.26216     0.54480
H      3.23041     1.58023    -0.19575
H      1.55673     0.30447     0.54048
H      2.31188     3.02705     0.26061
H      2.99816     1.98205     1.51518
C      0.67326     2.05080    -2.64592
O     -0.14861     1.28698    -1.78081
H      1.70624     2.06927    -2.29336
H      0.19843     1.37936    -0.87230
H      0.65454     1.60783    -3.64322
H      0.30706     3.07716    -2.72044
C     -0.73616     1.06531     3.32207
O     -1.98203     0.59108     2.81106
H     -0.06426     0.23276     3.54014
H     -2.40559     0.05615     3.48084
H     -0.28763     1.68881     2.55507
H     -0.88596     1.65929     4.22394
C     -0.41151    -2.31961    -2.22713
O      0.61132    -1.34528    -2.08453
H     -1.19117    -2.17587    -1.47997
H      0.20848    -0.45515    -2.09468
H     -0.84798    -2.28076    -3.22810
H      0.03722    -3.30461    -2.09855
C     -2.92505    -0.17393    -0.51819
O     -1.93694    -0.76421     0.31556
H     -2.46213     0.25464    -1.40691
H     -1.88621    -0.25097     1.13216
H     -3.64590    -0.93436    -0.82834
H     -3.46288     0.61836     0.00665
C      1.17237    -2.17729     1.13431
O      1.87640    -1.30670     0.26023
H      0.09461    -2.11088     0.98454
H      1.50593    -1.43836    -0.64194
H      1.49488    -3.20949     0.98585
H      1.40607    -1.89425     2.16200
