 60
-1158.0966520764716
C     -2.84408     1.53123    -1.52421
O     -1.85570     2.12941    -0.69445
H     -3.81609     1.50590    -1.02697
H     -1.70392     1.54768     0.06667
H     -2.93745     2.13691    -2.42542
H     -2.56300     0.51732    -1.81338
C      0.60956     4.44152    -1.68359
O     -0.31876     3.61098    -2.34151
H      0.13315     5.05043    -0.90632
H     -0.83052     3.12798    -1.67181
H      1.41240     3.85879    -1.22554
H      1.05066     5.11693    -2.41559
C      3.72813    -0.10591     1.69269
O      3.67865     0.26846     0.32655
H      4.59620    -0.73269     1.89941
H      3.58954    -0.54390    -0.20838
H      3.82434     0.79869     2.29134
H      2.82295    -0.63120     1.99753
C     -0.87917    -3.29026    -1.04753
O     -1.53306    -2.04841    -1.25121
H     -0.36277    -3.61716    -1.95193
H     -0.84267    -1.36572    -1.40973
H     -0.16685    -3.22608    -0.22563
H     -1.62327    -4.04804    -0.79769
C      0.46314    -1.64190     3.20368
O      0.24077    -1.53802     1.81343
H      0.73058    -0.67479     3.64359
H     -0.38610    -0.81480     1.65718
H     -0.41380    -2.02933     3.73020
H      1.29560    -2.32729     3.37206
C     -2.33773     1.23633     2.58984
O     -1.77899     0.45002     1.55469
H     -1.67149     2.07496     2.78652
H     -2.43743    -0.25265     1.30560
H     -3.31140     1.63273     2.30203
H     -2.44883     0.65661     3.50772
C      1.01157     2.17400     1.05919
O      1.35564     1.46343    -0.12352
H      0.64522     1.50473     1.83448
H      2.27626     1.13015    -0.01549
H      1.87555     2.71531     1.44260
H      0.24250     2.90525     0.82885
C      0.26409     0.25932    -3.04224
O      0.37467    -0.30890    -1.73861
H      1.23806     0.59822    -3.39236
H      0.63222     0.41702    -1.11777
H     -0.10104    -0.51164    -3.72028
H     -0.42841     1.09567    -3.04175
C      2.74257    -3.02941    -0.28807
O      2.85571    -1.87630    -1.10891
H      2.13804    -2.83346     0.59972
H      1.97421    -1.57148    -1.36505
H      2.30795    -3.86466    -0.84254
H      3.74431    -3.32069     0.01934
C     -3.15813    -2.71196     1.56898
O     -3.20725    -1.56415     0.73497
H     -3.74920    -3.52166     1.13912
H     -2.68729    -1.76980    -0.07958
H     -2.13445    -3.06037     1.71641
H     -3.58588    -2.45695     2.53779
