 36
-694.8511212729421
C     -1.17505    -0.19040    -3.49609
O     -1.46786    -0.02157    -2.12079
H     -0.14631    -0.52964    -3.64169
H     -0.90320     0.70920    -1.77890
H     -1.85573    -0.93594    -3.90541
H     -1.31436     0.74492    -4.03926
C      1.84326     1.88703     2.91191
O      2.43005     2.26330     1.68336
H      0.97131     1.24355     2.76759
H      2.48429     1.46569     1.14387
H      2.55748     1.36253     3.55261
H      1.52242     2.79157     3.42781
C      2.03574    -1.01242    -0.91606
O      1.91186    -0.05885     0.13251
H      2.58607    -0.55606    -1.73702
H      1.17775    -0.37830     0.70107
H      2.58513    -1.88936    -0.57172
H      1.05614    -1.33204    -1.27393
C     -3.05437    -2.43079    -0.29224
O     -1.69931    -2.03646    -0.42792
H     -3.69224    -1.57614    -0.05662
H     -1.66178    -1.33712    -1.12050
H     -3.41255    -2.89341    -1.21413
H     -3.12803    -3.16061     0.51255
C     -0.45083     2.50818    -0.01956
O      0.14671     1.84860    -1.13865
H     -0.72776     1.79162     0.75498
H      0.97699     1.45620    -0.83394
H      0.22736     3.24417     0.40412
H     -1.34844     3.01463    -0.36837
C      0.10693    -2.00063     2.47576
O     -0.18091    -1.03090     1.48456
H     -0.81154    -2.39991     2.90836
H     -0.79018    -1.44464     0.82943
H      0.68583    -2.82778     2.05987
H      0.68482    -1.53101     3.27051
