 48
-926.4798808162807
C     -0.03088     1.05650     1.42060
O      0.44272     2.27983     0.86668
H      0.42695     0.19358     0.93650
H      1.37139     2.11598     0.59911
H      0.17839     1.01293     2.49073
H     -1.10868     0.99151     1.28508
C     -4.46089     1.66670    -1.53718
O     -3.53154     1.39891    -0.49721
H     -5.31017     2.22846    -1.14636
H     -2.77773     2.01656    -0.62271
H     -3.99589     2.24593    -2.33507
H     -4.82774     0.72581    -1.95084
C      0.02561    -1.94185    -2.34105
O     -0.05088    -1.67660    -0.95219
H     -0.48620    -2.87113    -2.59299
H     -0.98401    -1.45426    -0.73373
H     -0.42189    -1.12843    -2.91603
H      1.07397    -2.02552    -2.62558
C     -0.73419     1.93515    -2.09592
O     -1.31085     2.75799    -1.09157
H     -0.10195     1.16509    -1.65480
H     -0.66789     2.75696    -0.34975
H     -1.52200     1.44932    -2.67265
H     -0.13338     2.53551    -2.78006
C     -2.98784    -1.61580     0.92291
O     -2.53917    -1.05187    -0.29715
H     -2.65677    -1.01910     1.77671
H     -2.95544    -0.16118    -0.37864
H     -4.07559    -1.68232     0.94509
H     -2.57989    -2.62282     1.02286
C      0.88603    -3.19391     1.85805
O      1.65501    -2.64490     0.80355
H      1.53972    -3.78249     2.49935
H      1.02694    -2.35372     0.11039
H      0.41582    -2.40788     2.45803
H      0.10231    -3.84871     1.47326
C      2.80429     0.93437    -1.25439
O      2.85099     1.44257     0.06878
H      2.12925     0.07774    -1.32946
H      3.14238     0.69570     0.63572
H      2.45287     1.72256    -1.92216
H      3.79609     0.62997    -1.58875
C      3.45278    -0.70364     2.89622
O      3.39265    -0.74142     1.48263
H      3.06789    -1.62826     3.32668
H      2.80724    -1.48256     1.22283
H      4.48622    -0.57735     3.21370
H      2.86395     0.12927     3.29041
