 42
-810.6649036663653
C     -1.75176     0.89882     1.83611
O     -2.30495     0.00011     0.87820
H     -1.60197     0.35799     2.77045
H     -2.32951     0.48483     0.02098
H     -0.79423     1.30845     1.51060
H     -2.44301     1.71977     2.02824
C     -0.61763    -2.54460     2.16204
O     -0.73715    -2.09625     0.81786
H     -1.58331    -2.51315     2.66503
H     -1.42522    -1.38207     0.78685
H     -0.25990    -3.57175     2.14957
H      0.09265    -1.92510     2.71646
C     -1.30864     0.51700    -2.33064
O     -1.95820     1.35965    -1.38854
H     -0.43307     0.02851    -1.89526
H     -1.34973     2.10912    -1.21486
H     -2.01398    -0.24545    -2.65818
H     -0.99098     1.08531    -3.20550
C      2.62625    -1.58471    -0.03632
O      1.51309    -0.70546     0.01141
H      2.40340    -2.47562    -0.61813
H      0.71673    -1.21486     0.25060
H      3.45811    -1.06415    -0.50746
H      2.93027    -1.88587     0.96919
C      0.07615    -3.45354    -2.16179
O      0.32798    -3.95775    -0.86736
H      0.52144    -4.13108    -2.88826
H     -0.13922    -3.37587    -0.25292
H     -0.99471    -3.38304    -2.37054
H      0.51615    -2.46130    -2.30088
C     -0.56805     4.32073     0.03816
O     -0.13842     3.21888    -0.73933
H     -1.00764     3.99042     0.98339
H      0.60230     2.78295    -0.27253
H      0.26283     4.99331     0.26079
H     -1.32028     4.87215    -0.52309
C      3.05872     2.14984     1.03555
O      1.74198     1.86452     0.61026
H      3.76455     2.08558     0.20427
H      1.69460     0.90899     0.40258
H      3.07953     3.16082     1.43833
H      3.37417     1.45692     1.81763
