 60
-1158.0937674401682
C      1.94636    -2.77214    -3.83956
O      2.43049    -1.92385    -2.81539
H      1.01548    -2.38955    -4.26409
H      2.44907    -1.00572    -3.16718
H      2.68283    -2.87203    -4.63982
H      1.75677    -3.76028    -3.41969
C      4.10392    -0.28232    -0.24819
O      3.62668     1.04353    -0.39995
H      3.48047    -0.86705     0.42945
H      2.70367     1.01477    -0.67721
H      4.16542    -0.81246    -1.19888
H      5.10431    -0.22516     0.17850
C      0.85205     2.87866    -0.78797
O      0.92255     1.58747    -1.39040
H      0.55350     2.78269     0.25530
H      0.14273     1.09215    -1.05851
H      1.83402     3.34508    -0.83973
H      0.12458     3.50149    -1.30940
C     -2.80573     3.17109     1.29507
O     -3.37037     2.16034     0.46285
H     -2.63799     4.08602     0.72552
H     -2.62710     1.75063    -0.01422
H     -3.50223     3.38680     2.10320
H     -1.85590     2.83703     1.71835
C      1.14161     0.02831     2.26266
O     -0.19476     0.53095     2.28355
H      1.51695    -0.09770     3.27720
H     -0.76132    -0.06366     2.82118
H      1.19671    -0.92374     1.73499
H      1.78444     0.74465     1.75672
C     -2.56571    -1.24093     4.69887
O     -2.13315    -1.00574     3.37130
H     -1.73188    -1.64255     5.27169
H     -2.89850    -0.65232     2.87419
H     -2.91095    -0.31756     5.16985
H     -3.38262    -1.96682     4.71784
C     -1.74664    -0.67352    -0.45609
O     -1.19694     0.60765    -0.14446
H     -2.54597    -0.53995    -1.18430
H     -0.82957     0.57032     0.77539
H     -0.97786    -1.31197    -0.88005
H     -2.15292    -1.14390     0.43771
C      3.49496     1.39915    -3.75349
O      2.31715     0.62354    -3.57048
H      4.17593     1.28610    -2.91027
H      1.77638     1.04613    -2.88086
H      3.98438     1.06253    -4.66474
H      3.24701     2.45636    -3.86393
C      1.66521    -3.41205     0.12378
O      1.21856    -2.18098    -0.40322
H      1.37726    -4.25274    -0.51323
H      1.67163    -2.03883    -1.25500
H      2.75208    -3.43558     0.24902
H      1.20468    -3.55572     1.10249
C     -5.13966    -0.67564     1.29197
O     -4.13946     0.07307     1.95567
H     -5.32728    -1.58913     1.85448
H     -3.93475     0.86915     1.41515
H     -6.06948    -0.10957     1.22352
H     -4.82474    -0.94697     0.28224
