 24
-463.2274045787976
C      1.41970     1.39896     1.86561
O      0.08655     1.41395     1.39601
H      2.01966     0.65173     1.33909
H      0.11764     1.61727     0.43598
H      1.89249     2.37357     1.73672
H      1.41246     1.15858     2.92663
C      1.39723     1.35484    -1.90946
O      0.14155     1.50609    -1.27836
H      2.00245     2.23347    -1.69625
H     -0.38162     0.69863    -1.47365
H      1.92203     0.46781    -1.54459
H      1.28516     1.26774    -2.99096
C     -0.40024    -1.90127     1.91958
O     -1.19872    -0.93007     1.27386
H     -0.80437    -2.88709     1.69862
H     -0.80451    -0.05233     1.46890
H      0.63616    -1.85881     1.57391
H     -0.40890    -1.75952     3.00119
C     -0.39386    -1.95509    -1.86522
O     -1.13386    -0.84375    -1.40116
H     -0.20884    -1.82982    -2.92991
H     -1.29281    -0.97809    -0.44170
H      0.56626    -2.03909    -1.34877
H     -0.94646    -2.88412    -1.71864
