 42
-810.661555878634
C     -0.59585     4.64606     0.91840
O     -0.18603     3.33263     0.59330
H     -0.55534     4.82822     1.99581
H     -0.71464     2.71179     1.12078
H      0.07596     5.34846     0.42573
H     -1.61630     4.84491     0.57481
C      0.34920    -1.73748     2.22931
O     -0.08959    -0.56994     1.55256
H      1.32333    -1.57758     2.69482
H      0.59418    -0.29311     0.90833
H     -0.37545    -1.97004     3.00775
H      0.42259    -2.58755     1.55089
C      2.81190    -3.13959    -1.58285
O      1.93290    -2.68243    -0.55791
H      2.78178    -2.48062    -2.45400
H      2.13312    -1.75292    -0.36559
H      3.83661    -3.20089    -1.21419
H      2.48740    -4.13519    -1.88097
C      2.47768     1.33881     0.08470
O      1.72835     0.17746    -0.27560
H      3.42960     1.34440    -0.44579
H      1.14952     0.37841    -1.05132
H      1.91645     2.24353    -0.13613
H      2.66990     1.30151     1.15622
C     -1.60471    -2.58190    -0.74018
O     -0.54632    -2.27624    -1.63109
H     -1.50670    -3.59704    -0.35069
H      0.29113    -2.58495    -1.23894
H     -1.63366    -1.88410     0.09496
H     -2.54360    -2.51657    -1.28703
C     -1.28027     1.10352    -1.79033
O     -0.14170     0.32166    -2.12733
H     -0.98443     2.14861    -1.74339
H     -0.39900    -0.62366    -2.08101
H     -2.05477     1.00057    -2.55219
H     -1.69610     0.81811    -0.82426
C     -3.04200     1.08874     1.69703
O     -1.71601     1.48691     1.98321
H     -3.48306     1.77646     0.97169
H     -1.15617     0.68869     1.94871
H     -3.06149     0.08015     1.27697
H     -3.65006     1.10402     2.60263
