 42
-810.6648930825669
C     -4.30717    -0.65999    -0.06659
O     -3.22228    -0.23553     0.73713
H     -3.99432    -0.81311    -1.10313
H     -2.57998    -0.97032     0.79845
H     -4.73225    -1.59399     0.30656
H     -5.07951     0.10668    -0.04431
C      2.13194    -1.54410     1.55340
O      1.02897    -0.96776     0.87111
H      2.87559    -0.79410     1.81110
H      1.36174    -0.39857     0.15304
H      1.76854    -2.00033     2.47259
H      2.60652    -2.31827     0.94545
C     -1.25074    -3.48520     1.17672
O     -1.33943    -2.14359     0.74169
H     -1.15692    -3.54070     2.26387
H     -0.44678    -1.74683     0.80480
H     -2.15704    -4.00656     0.87376
H     -0.39324    -3.98653     0.72440
C     -1.04309     2.28188     1.08182
O     -1.91308     1.98526    -0.00206
H     -1.60526     2.41525     2.00684
H     -2.47914     1.23837     0.28742
H     -0.30654     1.48855     1.23279
H     -0.52251     3.21290     0.86256
C     -1.10744    -0.01822    -2.44831
O     -0.45640     1.19774    -2.09017
H     -0.45981    -0.56862    -3.13063
H     -1.01245     1.61921    -1.39452
H     -1.31415    -0.64449    -1.57913
H     -2.04330     0.19204    -2.96657
C      3.13829     2.15576     1.43838
O      3.81274     1.25330     0.58708
H      3.83389     2.49253     2.20521
H      3.20745     1.06679    -0.14330
H      2.77395     3.03371     0.89768
H      2.28417     1.68229     1.93221
C      2.52215    -0.25563    -2.26985
O      1.93657     0.54879    -1.25468
H      3.59921    -0.26591    -2.11862
H      1.08021     0.91640    -1.59609
H      2.14376    -1.28022    -2.21881
H      2.30831     0.15368    -3.25628
