 42
-810.6633516699276
C     -0.29501    -4.12345     1.23733
O     -0.51147    -3.10943     0.27642
H     -0.23361    -3.70482     2.24598
H      0.27031    -2.52967     0.29835
H     -1.12820    -4.82231     1.20046
H      0.62555    -4.67508     1.03209
C     -0.84547     0.79977     2.54123
O     -0.00975     0.90866     1.39097
H     -0.39609     0.15044     3.29459
H      0.39476     0.05170     1.19245
H     -0.95816     1.79243     2.97581
H     -1.82468     0.40706     2.27295
C     -2.87219    -0.76780    -0.35848
O     -2.62102    -1.43204     0.86063
H     -2.76262    -1.43016    -1.22292
H     -1.91531    -2.07447     0.68931
H     -3.89701    -0.39583    -0.35315
H     -2.20190     0.08259    -0.50119
C     -2.25923     3.00843    -0.16440
O     -0.95370     2.58018    -0.50718
H     -2.85721     2.18025     0.21886
H     -0.63821     1.98582     0.20139
H     -2.22801     3.79547     0.59182
H     -2.74104     3.40414    -1.05614
C      0.36603    -0.37338    -2.43744
O      1.61473    -0.05737    -1.81594
H      0.52253    -0.62593    -3.48551
H      1.68457     0.92474    -1.83131
H     -0.08526    -1.22860    -1.93445
H     -0.31557     0.47509    -2.37095
C      2.83722    -1.74454     0.92298
O      1.56739    -1.39006     0.40983
H      3.49223    -0.87373     0.95619
H      1.70375    -0.90156    -0.44265
H      2.70779    -2.12626     1.93336
H      3.29854    -2.51498     0.30345
C      2.25601     3.16010    -0.70443
O      1.45904     2.60655    -1.74552
H      2.23677     4.24893    -0.74485
H      0.52946     2.75214    -1.49498
H      1.89218     2.83489     0.27180
H      3.28188     2.82045    -0.83892
