 36
-694.8562340928033
C      2.72672     1.02691     0.07646
O      1.65918     1.91022     0.37838
H      2.40369    -0.01482     0.11519
H      0.96850     1.78407    -0.30336
H      3.13751     1.23085    -0.91334
H      3.51213     1.17840     0.81375
C     -0.79463     2.32480    -2.34695
O     -0.28773     1.39036    -1.41227
H     -1.78456     2.02498    -2.69888
H     -0.27269     0.50469    -1.84474
H     -0.87984     3.29778    -1.86400
H     -0.13123     2.41425    -3.20963
C      0.80011    -2.32397     2.34544
O      0.29042    -1.39019     1.41158
H      0.13796    -2.41480     3.20894
H      0.27352    -0.50478     1.84441
H      0.88638    -3.29668     1.86213
H      1.78999    -2.02262     2.69628
C      0.90862    -1.72566    -2.39268
O     -0.32846    -1.03558    -2.51583
H      0.85772    -2.69265    -2.89072
H     -0.94053    -1.46030    -1.87548
H      1.68942    -1.13242    -2.86667
H      1.16404    -1.88237    -1.34308
C     -2.72684    -1.02780    -0.07373
O     -1.65983    -1.91145    -0.37670
H     -3.51507    -1.18259    -0.80729
H     -0.96841    -1.78549     0.30423
H     -3.13335    -1.22830     0.91851
H     -2.40478     0.01404    -0.11779
C     -0.91254     1.72482     2.39027
O      0.32513     1.03638     2.51639
H     -0.86340     2.69325     2.88572
H      0.93763     1.46075     1.87621
H     -1.16720     1.87860     1.34006
H     -1.69311     1.13208     2.86521
