 48
-926.4783897134332
C     -2.76505     1.12570     1.12872
O     -2.19496     1.75735    -0.01570
H     -3.63329     0.54770     0.81389
H     -1.38171     2.21601     0.30146
H     -2.05508     0.45741     1.61661
H     -3.09318     1.87601     1.84742
C     -2.84018    -0.32655    -2.55622
O     -1.66270     0.01436    -1.84631
H     -2.85785     0.17393    -3.52448
H     -1.88131     0.74425    -1.20129
H     -2.86700    -1.40514    -2.71270
H     -3.71986    -0.03016    -1.98915
C      1.17082     1.91244     0.27002
O      0.14276     2.61058     0.97527
H      1.22101     0.86590     0.57092
H      0.20484     2.31728     1.90520
H      0.98458     1.95533    -0.80203
H      2.13742     2.37662     0.46845
C      0.66180    -0.88984    -4.05107
O      0.77050    -0.16094    -2.84558
H      0.12418    -0.31598    -4.80832
H     -0.13729    -0.01362    -2.51843
H      1.66159    -1.09445    -4.43121
H      0.14349    -1.84140    -3.90594
C      0.02202    -2.99071    -0.73711
O     -0.80706    -2.00420    -0.14014
H     -0.58324    -3.74256    -1.24947
H     -1.07168    -1.36266    -0.81944
H      0.73110    -2.55187    -1.43552
H      0.58385    -3.49255     0.04862
C      1.54571    -1.61290     2.25137
O      0.21598    -1.10932     2.18529
H      2.10244    -1.01354     2.97265
H     -0.18697    -1.42241     1.34985
H      1.54128    -2.64666     2.60532
H      2.05424    -1.55549     1.28909
C     -0.56339     1.35118     4.48481
O      0.25999     1.30373     3.33471
H     -0.27187     0.58720     5.20892
H      0.22217     0.38889     2.98293
H     -0.45584     2.32988     4.94745
H     -1.61409     1.19905     4.22305
C      3.84809    -0.15092    -1.41020
O      2.66034    -0.81333    -1.02626
H      4.13883    -0.39037    -2.43750
H      1.97054    -0.55875    -1.66342
H      3.74151     0.93508    -1.33653
H      4.65380    -0.46236    -0.74592
