 36
-694.8476986268867
C      1.01592     4.49235    -0.08983
O      0.37377     3.25939    -0.36343
H      1.24984     4.97206    -1.03960
H      0.25228     2.79122     0.47623
H      0.37580     5.16414     0.48930
H      1.95011     4.34738     0.46234
C      2.48594     0.32182    -0.05023
O      1.22949    -0.18497     0.38543
H      3.12938     0.44384     0.81826
H      0.62057    -0.18115    -0.40024
H      2.95683    -0.37816    -0.74033
H      2.37051     1.28527    -0.54557
C     -1.15721     0.73372    -2.18579
O     -0.39795    -0.34686    -1.65332
H     -1.45136     0.52258    -3.21457
H     -0.99318    -1.11274    -1.49963
H     -2.05192     0.91908    -1.58774
H     -0.54099     1.62857    -2.17296
C      1.31400    -3.61053    -0.25364
O      0.41556    -2.97374     0.65278
H      1.78445    -2.87826    -0.91059
H      0.78233    -2.10376     0.86659
H      2.08262    -4.15864     0.29192
H      0.74588    -4.31406    -0.86185
C     -2.91117    -2.19628     0.01321
O     -1.79012    -2.48988    -0.80300
H     -3.73788    -1.91433    -0.63480
H     -1.08336    -2.82649    -0.21465
H     -3.20580    -3.06778     0.59791
H     -2.69908    -1.37108     0.69821
C     -1.00209     1.29100     2.54476
O      0.23862     1.73934     2.03384
H     -1.36264     2.01892     3.26817
H      0.64944     0.97959     1.58357
H     -1.74218     1.19414     1.74524
H     -0.90293     0.32336     3.04223
