 36
-694.8521527890439
C     -1.92470     1.27404    -2.81212
O     -0.58443     0.83118    -2.86079
H     -1.99039     2.36565    -2.87548
H     -0.09903     1.21736    -2.12417
H     -2.44950     0.85500    -3.67030
H     -2.43002     0.94388    -1.90277
C      1.75053     2.46706     0.29126
O      0.99995     1.54146    -0.47770
H      2.79443     2.45909    -0.01594
H      1.49964     0.67794    -0.47232
H      1.34332     3.46271     0.13237
H      1.69386     2.21892     1.35328
C      0.56119    -3.68942     0.64539
O      0.88416    -2.43095     1.21615
H     -0.42278    -3.66154     0.17439
H      0.04989    -2.02825     1.54088
H      1.30348    -3.93636    -0.11368
H      0.57117    -4.47249     1.40498
C      1.82857    -1.41358    -1.73769
O      2.12492    -0.79736    -0.48358
H      0.87664    -1.94435    -1.69456
H      1.76229    -1.39506     0.20963
H      1.76491    -0.64536    -2.50695
H      2.62239    -2.11319    -2.00377
C     -2.13076     2.31100     0.79476
O     -1.44938     1.10105     0.53805
H     -2.15183     2.94316    -0.09454
H     -0.56822     1.31944     0.17570
H     -3.15445     2.07486     1.07669
H     -1.65992     2.86567     1.60919
C     -1.12818    -0.53250     3.28442
O     -1.32271    -1.10235     2.00139
H     -0.33035     0.21454     3.26712
H     -1.46873    -0.34943     1.39398
H     -2.04294    -0.05433     3.63957
H     -0.85631    -1.32170     3.98452
