 36
-694.8562288009041
C     -0.93606     2.48047    -2.12107
O     -0.46562     1.37659    -1.37026
H     -1.06259     3.35865    -1.48341
H      0.38752     1.63504    -0.94917
H     -0.24138     2.73180    -2.92534
H     -1.90263     2.22701    -2.55574
C      2.85782     1.15578    -0.33790
O      1.79052     2.07262    -0.13482
H      3.05542     1.08007    -1.40615
H      1.48264     1.93125     0.78732
H      3.76202     1.50602     0.15764
H      2.60224     0.16837     0.05069
C      0.95364    -2.48872     2.10441
O      0.47188    -1.37738     1.37203
H      1.06456    -3.36228     1.45774
H     -0.38357    -1.63436     0.95516
H      1.92934    -2.24167     2.52159
H      0.27444    -2.74451     2.92015
C      0.58877    -1.69879    -2.28932
O     -0.72699    -1.19158    -2.13950
H      0.51924    -2.75282    -2.54917
H     -0.65435    -0.23921    -1.92581
H      1.12186    -1.18033    -3.08756
H      1.15976    -1.60087    -1.36454
C     -0.59195     1.69597     2.29381
O      0.72545     1.19222     2.14614
H     -1.12340     1.17742     3.09284
H      0.65563     0.24002     1.93111
H     -0.52624     2.75078     2.55119
H     -1.16201     1.59454     1.36888
C     -2.85125    -1.14436     0.34953
O     -1.79182    -2.06999     0.14407
H     -2.58523    -0.15799    -0.03473
H     -1.48403    -1.92927    -0.77820
H     -3.75800    -1.48335    -0.14935
H     -3.05045    -1.07138     1.41777
