 60
-1158.0955347140052
C     -1.24150    -2.65876     3.88153
O     -2.51483    -2.14380     3.56771
H     -0.50710    -2.43054     3.10255
H     -2.39963    -1.22098     3.30681
H     -0.86638    -2.26560     4.83083
H     -1.32019    -3.74143     3.97093
C     -0.98691     0.79617    -3.18151
O     -0.35872     0.17989    -2.06373
H     -0.23982     1.21166    -3.85702
H      0.37297    -0.41705    -2.39183
H     -1.58615     0.06351    -3.71890
H     -1.63430     1.59466    -2.82623
C      1.54610    -0.31654     2.60367
O      1.58093    -0.45615     1.19525
H      2.28108     0.41567     2.94603
H      1.14827     0.33961     0.81355
H      0.56092    -0.00929     2.95363
H      1.79258    -1.27377     3.06032
C     -5.00865     1.44253    -1.06616
O     -3.59484     1.52231    -1.02555
H     -5.35397     0.68337    -1.77345
H     -3.23551     0.67406    -0.73170
H     -5.43131     1.21578    -0.08246
H     -5.38983     2.41260    -1.38227
C     -0.41429     2.55871     0.70243
O      0.52023     1.69014     0.06495
H     -0.40363     2.37637     1.77514
H      0.13696     1.34475    -0.75911
H     -0.12938     3.59724     0.52639
H     -1.42702     2.39794     0.33452
C      1.89265    -2.45614    -2.06449
O      1.59853    -1.31791    -2.87816
H      2.92623    -2.76409    -2.20571
H      2.42044    -0.77413    -2.89382
H      1.73375    -2.23153    -1.00803
H      1.23909    -3.27435    -2.35901
C     -1.58486    -2.08870     0.11162
O     -1.96535    -0.74567    -0.18507
H     -0.54270    -2.12665     0.42781
H     -1.35280    -0.44786    -0.89006
H     -2.21202    -2.46781     0.91418
H     -1.72099    -2.72807    -0.76068
C      3.33792     1.55695    -2.58573
O      3.76289     0.20488    -2.48546
H      4.14671     2.23816    -2.32159
H      3.99959     0.03860    -1.54811
H      3.06207     1.75325    -3.62020
H      2.47877     1.76405    -1.94364
C      4.43587     1.06190     0.77401
O      4.09549    -0.17987     0.17644
H      3.55195     1.68620     0.91730
H      3.22755    -0.43519     0.54149
H      4.92018     0.90632     1.73952
H      5.13168     1.59004     0.12374
C     -3.45895     0.95990     2.37940
O     -2.16419     0.38418     2.32844
H     -3.57185     1.76684     1.65517
H     -2.02113     0.03565     1.43050
H     -4.23807     0.21434     2.19748
H     -3.60707     1.36772     3.37725
