 60
-1158.1013005321781
C      2.09141    -0.54510    -3.52543
O      1.23085    -1.19453    -2.60236
H      2.94597    -1.18197    -3.76399
H      1.75153    -1.39265    -1.80335
H      1.53543    -0.36187    -4.44388
H      2.45531     0.40422    -3.13317
C      0.60935     3.19476    -1.78374
O     -0.45971     2.70292    -0.98607
H      0.84257     4.21152    -1.46759
H     -0.69544     1.81439    -1.32977
H      1.50151     2.57396    -1.67097
H      0.32882     3.22612    -2.83742
C      4.80439     0.71076    -1.30571
O      3.50720     0.89616    -0.79023
H      5.22652     1.68469    -1.55154
H      3.18966     0.03196    -0.50027
H      5.46721     0.22229    -0.58626
H      4.79647     0.10464    -2.21664
C     -3.42144     1.64721     0.58123
O     -3.00031     0.30089     0.76215
H     -4.51023     1.67245     0.61054
H     -2.10257     0.30583     1.12760
H     -3.03739     2.29886     1.36715
H     -3.09194     2.03565    -0.38205
C      1.54437     3.08813     1.65892
O      0.17307     2.70923     1.60656
H      1.67194     4.09889     1.27143
H     -0.11287     2.76871     0.66506
H      1.86582     3.08064     2.69899
H      2.17003     2.40750     1.08183
C     -4.20888    -2.91390     1.76443
O     -3.77042    -1.79509     2.50622
H     -3.91750    -2.85052     0.71032
H     -3.66312    -1.04996     1.90026
H     -3.75574    -3.81444     2.18353
H     -5.29570    -3.02102     1.81193
C     -2.08998    -0.38228    -2.42588
O     -0.91683     0.29919    -2.01245
H     -2.84524    -0.30978    -1.64825
H     -0.14583    -0.25473    -2.24950
H     -2.47562     0.05360    -3.34807
H     -1.87709    -1.43870    -2.60427
C      3.20478    -2.90840    -0.20919
O      2.55782    -1.65096    -0.24164
H      2.52118    -3.70191    -0.51479
H      1.78553    -1.69383     0.39425
H      4.04733    -2.88652    -0.89856
H      3.57125    -3.12665     0.79286
C     -0.65050    -2.39229     0.53896
O      0.45058    -1.78513     1.21072
H     -0.28581    -3.22497    -0.06134
H      0.09988    -0.98775     1.65637
H     -1.37626    -2.77522     1.25281
H     -1.14507    -1.68460    -0.12422
C     -1.15440     0.30662     3.63038
O     -0.63011     0.36836     2.31129
H     -1.92699     1.06362     3.76592
H     -0.28497     1.28956     2.15122
H     -1.59948    -0.67214     3.79410
H     -0.36425     0.47057     4.36306
