 36
-694.8485763471679
C      0.52724     2.11592    -1.61550
O      0.34115     0.70044    -1.72322
H     -0.40516     2.58662    -1.30892
H      0.93564     0.24212    -1.11639
H      1.28927     2.35773    -0.87768
H      0.82274     2.50522    -2.58927
C      3.23956     1.55466     1.34601
O      1.86346     1.26583     1.49833
H      3.85819     0.83823     1.89167
H      1.71289     0.35068     1.20992
H      3.53618     1.53503     0.29362
H      3.42812     2.54909     1.74360
C      2.11350    -2.24638    -0.08889
O      1.35150    -1.15812     0.40091
H      2.05247    -3.09782     0.58908
H      0.42666    -1.48195     0.55521
H      1.74999    -2.55034    -1.07235
H      3.15148    -1.93343    -0.17212
C     -2.54786    -0.96287    -2.46470
O     -2.09417    -0.32125    -1.28598
H     -3.43561    -1.54648    -2.22484
H     -1.27970     0.17923    -1.51056
H     -2.81099    -0.23124    -3.22956
H     -1.78451    -1.63316    -2.86844
C     -1.65837    -3.19291     0.58457
O     -1.12246    -1.88233     0.64286
H     -1.38411    -3.69062    -0.34870
H     -1.60164    -1.32231    -0.01113
H     -1.26435    -3.76632     1.42061
H     -2.74600    -3.17163     0.66280
C     -1.60968     1.84371     1.60215
O     -0.53021     2.71481     1.32650
H     -2.22278     1.71200     0.70837
H      0.29365     2.23501     1.47814
H     -1.26882     0.85798     1.92929
H     -2.24318     2.26596     2.38549
