 36
-694.8541725673211
C      1.51907     1.62949    -1.45054
O      1.12214     2.28847    -0.25720
H      1.38145     2.28184    -2.31319
H      0.14407     2.35312    -0.26569
H      2.58117     1.40146    -1.37011
H      0.96918     0.69978    -1.61920
C      0.58536     1.14885     2.76804
O      1.47984     0.61903     1.78909
H      1.12692     1.77368     3.47774
H      1.51824     1.28468     1.06367
H     -0.19827     1.73913     2.29268
H      0.12532     0.32168     3.30840
C      2.06930    -2.13538    -2.11208
O      0.70145    -2.00855    -1.77998
H      2.49593    -3.06833    -1.73332
H      0.63102    -1.96507    -0.81911
H      2.15716    -2.13102    -3.19762
H      2.65944    -1.30429    -1.71470
C     -2.46527    -1.25776    -0.87760
O     -1.94517    -0.54389     0.23881
H     -1.74982    -1.27873    -1.69990
H     -1.15409    -1.02034     0.54868
H     -2.71021    -2.28325    -0.59630
H     -3.37811    -0.76598    -1.21035
C      0.40340    -2.50790     2.16616
O      0.42403    -1.64666     1.03826
H     -0.53612    -2.39317     2.71134
H      0.93022    -0.82625     1.28043
H      0.49464    -3.53562     1.82516
H      1.22838    -2.27752     2.83836
C     -2.20956     2.32366    -1.43555
O     -1.56410     2.06576    -0.20351
H     -3.26177     2.56664    -1.27655
H     -1.73544     1.12762     0.02400
H     -1.73292     3.17374    -1.92310
H     -2.14530     1.46187    -2.10245
