 30
-579.0369473157275
C      3.46439     1.59217     0.88467
O      3.27536     0.47269     0.04647
H      2.69720     1.65384     1.66195
H      2.48110     0.63560    -0.47738
H      4.43463     1.49450     1.36926
H      3.45820     2.52935     0.32216
C     -2.70070    -2.23511     1.40248
O     -2.17184    -1.16039     0.64450
H     -3.73186    -2.39901     1.09737
H     -1.40134    -0.80519     1.13524
H     -2.12941    -3.15101     1.23418
H     -2.68494    -2.00200     2.46850
C      1.03862    -1.24885     1.84995
O      0.12279    -0.17521     1.63439
H      2.05371    -0.88091     1.96843
H      0.46679     0.36991     0.91356
H      0.73613    -1.75677     2.76366
H      1.01185    -1.96067     1.02242
C      0.15720     2.32077    -1.15441
O      0.67929     1.00264    -1.03836
H     -0.76058     2.42576    -0.57297
H      0.00539     0.39588    -1.41752
H      0.89956     3.01978    -0.77577
H     -0.05338     2.56470    -2.19522
C     -2.37304    -0.13982    -2.75913
O     -1.35303    -0.49721    -1.84055
H     -2.96575     0.69509    -2.37856
H     -1.76904    -0.80678    -1.00973
H     -1.90146     0.15342    -3.69466
H     -3.03437    -0.98613    -2.95127
