 42
-810.6638646534063
C     -3.51769     0.31255     2.95516
O     -3.46954     0.67844     1.59315
H     -2.90368    -0.57085     3.14835
H     -2.54509     0.85157     1.37616
H     -3.17491     1.12054     3.60904
H     -4.54787     0.07210     3.21307
C     -0.05120     2.06436     0.48104
O     -0.76126     0.90523     0.90841
H      0.32954     2.61483     1.33887
H     -0.23027     0.46049     1.62552
H      0.78009     1.79355    -0.17007
H     -0.74221     2.70541    -0.06459
C      3.96621     0.28045    -1.92287
O      2.74399     0.33393    -1.21417
H      4.78427     0.36829    -1.21040
H      2.00818     0.27092    -1.86023
H      4.06973    -0.66212    -2.46643
H      4.03953     1.10380    -2.63724
C      0.24782     1.06225    -3.79432
O      0.62538     0.09298    -2.83623
H     -0.54685     0.68392    -4.43838
H     -0.18439    -0.16077    -2.33744
H     -0.10192     1.98105    -3.31696
H      1.11136     1.29673    -4.41391
C     -2.83400    -0.09381    -1.68979
O     -1.49764    -0.42753    -1.34571
H     -3.11360    -0.66379    -2.57385
H     -1.30536    -0.01455    -0.48491
H     -3.51845    -0.34378    -0.88069
H     -2.92775     0.97250    -1.91177
C      0.08121    -1.36494     3.39112
O      0.69754    -0.29695     2.68477
H      0.82797    -2.07572     3.74214
H      1.37271    -0.69487     2.08469
H     -0.44112    -0.95942     4.25533
H     -0.63447    -1.89790     2.75946
C      1.40833    -2.31025     0.05947
O      2.18385    -1.34563     0.76598
H      1.76720    -2.41637    -0.96252
H      2.46998    -0.68012     0.10538
H      1.49968    -3.26981     0.56575
H      0.35372    -2.02988     0.02575
