 42
-810.6614834825128
C     -3.04335     3.56590     0.38244
O     -1.94342     2.78015    -0.03319
H     -2.76138     4.61502     0.51307
H     -1.33927     2.68854     0.72640
H     -3.81770     3.51090    -0.38273
H     -3.46592     3.20534     1.32484
C      1.11911    -0.78276     2.53894
O     -0.17345    -0.20944     2.43765
H      1.05613    -1.86847     2.64042
H     -0.62283    -0.63970     1.68365
H      1.73292    -0.54105     1.66877
H      1.60367    -0.38841     3.43102
C      2.51371    -1.41997    -3.37760
O      1.89080    -1.74769    -2.14690
H      1.78321    -1.04502    -4.09781
H      1.74415    -0.92025    -1.64795
H      3.28924    -0.66539    -3.23587
H      2.97274    -2.31943    -3.78114
C      0.81194     1.49693    -1.71584
O      1.08414     0.44725    -0.78415
H      0.64075     1.08902    -2.71409
H      0.25796     0.16117    -0.36880
H     -0.05626     2.08085    -1.42029
H      1.68569     2.14533    -1.75318
C      0.40813    -4.22133    -0.39260
O     -0.16310    -3.16848    -1.15938
H      1.09890    -4.80700    -0.99857
H      0.57007    -2.73159    -1.64053
H      0.95178    -3.82407     0.46854
H     -0.39021    -4.87132    -0.04243
C     -2.51034    -0.84194    -0.28641
O     -1.21850    -1.17919     0.21657
H     -2.64353     0.23553    -0.22081
H     -0.89933    -1.98082    -0.26158
H     -2.59464    -1.15037    -1.32796
H     -3.28440    -1.34220     0.29485
C      1.10022     2.83201     1.86805
O     -0.24297     2.43147     2.05650
H      1.12132     3.91002     1.71667
H     -0.23715     1.48876     2.32083
H      1.71035     2.60437     2.74546
H      1.53896     2.33851     0.99921
