 48
-926.4744493432394
C     -2.00223     1.25758     3.96950
O     -1.16606     0.81630     2.92204
H     -2.53844     2.17078     3.69920
H     -1.23512     1.46530     2.20150
H     -2.74231     0.49005     4.21417
H     -1.41440     1.46072     4.86918
C     -2.82341    -0.95859     0.02744
O     -1.79579    -0.96163    -0.95972
H     -3.40847    -1.87910    -0.03127
H     -1.05857    -1.46276    -0.56575
H     -2.40554    -0.85705     1.02996
H     -3.49268    -0.11906    -0.16128
C     -0.54805     1.93880    -2.42345
O     -1.54604     1.61583    -1.47382
H      0.41790     1.53175    -2.12599
H     -1.61693     0.63482    -1.41318
H     -0.81377     1.55775    -3.41180
H     -0.47049     3.02311    -2.48827
C      2.81264    -0.21568    -2.83373
O      3.16509    -0.52913    -1.49761
H      3.51272    -0.71164    -3.50267
H      2.58903     0.01753    -0.92133
H      1.79928    -0.55234    -3.07268
H      2.87304     0.85862    -3.01083
C     -0.03568    -2.53386     1.74469
O      0.16957    -2.08141     0.40837
H     -0.85348    -3.25304     1.77219
H      0.97479    -2.51272     0.03346
H      0.86594    -3.01171     2.12237
H     -0.28415    -1.68064     2.37449
C      1.74749     1.37747     1.18463
O      1.34791     0.63614     0.03239
H      2.57313     2.02198     0.89070
H      0.73103    -0.06917     0.27699
H      0.92914     1.99502     1.54366
H      2.08571     0.71563     1.98318
C     -2.52663     3.61653     1.04131
O     -1.47693     2.67243     0.95997
H     -3.49709     3.11574     1.09538
H     -1.47143     2.30597     0.04728
H     -2.38748     4.21697     1.93864
H     -2.52685     4.28337     0.17661
C      2.21336    -3.79652    -1.88474
O      2.35617    -2.97499    -0.73643
H      3.15851    -3.88156    -2.42113
H      2.79439    -2.14266    -1.02111
H      1.90598    -4.79040    -1.56759
H      1.46183    -3.39167    -2.56689
