 60
-1158.094381741467
C      1.98000     1.30996     1.07524
O      0.90387     1.91363     0.35241
H      1.57952     0.56192     1.75317
H      1.22461     2.10676    -0.56489
H      2.67034     0.83525     0.38500
H      2.49880     2.07296     1.65447
C     -3.33426    -2.55314     0.96795
O     -2.27400    -2.29312     0.05769
H     -3.59097    -3.60982     0.89374
H     -1.97752    -1.38232     0.17854
H     -3.04950    -2.33735     1.99893
H     -4.22441    -1.96536     0.72724
C      3.06925     1.78164    -2.50437
O      1.71500     2.03098    -2.13356
H      3.15000     1.61829    -3.57767
H      1.19438     1.24715    -2.38505
H      3.65755     2.65491    -2.23160
H      3.46553     0.90226    -1.99472
C     -0.85453    -0.88739    -2.67564
O      0.36333    -0.31137    -2.20899
H     -0.94287    -0.67348    -3.73907
H      0.52972    -0.66247    -1.30267
H     -0.85063    -1.96466    -2.52557
H     -1.70149    -0.45528    -2.14906
C      1.19572    -2.84064    -0.38818
O      0.97941    -1.50909     0.07386
H      0.24835    -3.37376    -0.48595
H      0.70206    -1.57117     1.01726
H      1.68459    -2.80803    -1.36101
H      1.83951    -3.39528     0.29622
C     -0.29412    -3.10201     2.83683
O      0.10252    -1.76252     2.57974
H     -0.91314    -3.48937     2.02716
H     -0.65970    -1.17871     2.79437
H      0.59747    -3.72089     2.93011
H     -0.85523    -3.17107     3.77072
C     -2.37061     1.64604    -0.26636
O     -1.53679     0.64886     0.31978
H     -2.44384     2.51593     0.38277
H     -0.61348     0.97173     0.29263
H     -1.98737     1.95223    -1.23852
H     -3.36076     1.21539    -0.40555
C      2.34712    -1.76579    -4.88556
O      2.70682    -1.28131    -3.60748
H      1.95718    -0.96854    -5.52661
H      1.90773    -0.94726    -3.18381
H      3.23857    -2.17786    -5.35361
H      1.59585    -2.55843    -4.82362
C     -1.97748     0.96572     3.74878
O     -1.97778    -0.13697     2.84992
H     -1.93866     0.57834     4.76476
H     -1.94964     0.21759     1.94098
H     -1.12415     1.62251     3.57712
H     -2.89209     1.54998     3.63334
C     -0.11678     4.88693     1.73993
O     -0.54212     3.56432     2.01699
H      0.93582     5.03688     1.99840
H     -0.01822     2.97390     1.45553
H     -0.25054     5.14189     0.68402
H     -0.71679     5.56981     2.33798
