 18
-347.40550360351705
C     -1.55117     2.44900    -0.21107
O     -0.15700     2.57722     0.00568
H     -1.77315     2.21006    -1.25463
H      0.21672     1.69339     0.03813
H     -1.99300     1.67832     0.42845
H     -2.01465     3.40329     0.03291
C     -1.72035    -2.38870    -0.16400
O     -0.37380    -2.41555     0.27573
H     -2.09076    -3.41167    -0.13869
H     -0.02192    -1.52384     0.22056
H     -2.35102    -1.77762     0.48895
H     -1.80555    -2.01545    -1.18879
C      2.44530    -0.11832    -0.50152
O      1.30131     0.03328     0.34262
H      2.07472    -0.14093    -1.52196
H      1.59453     0.04620     1.25409
H      3.12566     0.72363    -0.38320
H      2.95983    -1.05303    -0.28448
