 42
-810.6682522625813
C     -4.09750    -0.89601     0.73263
O     -2.86669    -0.36247     1.18982
H     -4.71783    -0.12243     0.27922
H     -2.61257     0.35581     0.57221
H     -3.93061    -1.68326    -0.00803
H     -4.63549    -1.31759     1.57884
C      0.06065    -1.51060     2.25373
O     -0.83484    -2.07263     1.29948
H     -0.47960    -1.18029     3.14037
H     -1.62820    -1.49196     1.28790
H      0.77477    -2.27764     2.54973
H      0.60324    -0.65830     1.83905
C     -1.68953     0.60870    -1.80673
O     -2.06257     1.37994    -0.67551
H     -2.58760     0.21898    -2.28111
H     -1.29279     1.94899    -0.45735
H     -1.16828     1.22632    -2.53870
H     -1.04590    -0.23284    -1.53542
C      2.02459     0.05922    -2.23577
O      2.41093    -0.63075    -1.05350
H      1.48479    -0.60357    -2.91345
H      1.78746    -1.38641    -0.96835
H      1.37928     0.90746    -1.99587
H      2.91809     0.43229    -2.73489
C      0.82154    -3.86439    -1.09365
O      0.53457    -2.48491    -0.93844
H      1.61792    -3.97258    -1.82895
H     -0.04214    -2.38746    -0.14873
H      1.14961    -4.31193    -0.15306
H     -0.05900    -4.40174    -1.44993
C     -0.12233     3.72416     1.00563
O      0.10301     2.77229    -0.02112
H     -0.69524     4.55417     0.59584
H      0.85994     2.21985     0.26867
H     -0.68009     3.28093     1.83459
H      0.82087     4.11168     1.39241
C      3.41146     2.01977     0.84774
O      2.19332     1.30518     0.76008
H      4.24927     1.34615     1.02943
H      2.35109     0.52592     0.18277
H      3.60785     2.58328    -0.06807
H      3.34527     2.71752     1.68050
