 54
-1042.2841523071172
C     -3.61861     0.28756     0.06245
O     -2.39419    -0.36950     0.36410
H     -3.46152     1.35090    -0.10662
H     -1.76713     0.28030     0.74693
H     -4.04454    -0.14598    -0.84268
H     -4.33436     0.15316     0.87617
C     -2.62737    -0.15939    -4.90276
O     -2.98569     0.00891    -3.54419
H     -2.71593     0.79896    -5.41467
H     -2.52910    -0.68401    -3.02778
H     -1.59810    -0.51005    -5.00034
H     -3.28928    -0.87632    -5.39221
C     -0.16898    -0.86432    -2.09236
O     -1.43071    -1.46904    -1.86881
H      0.21929    -1.22815    -3.04183
H     -1.76737    -1.12802    -1.00985
H     -0.24406     0.22312    -2.15643
H      0.53633    -1.12514    -1.30602
C      4.00406    -1.16377    -0.41552
O      3.62567    -1.68611     0.84629
H      3.48367    -0.22378    -0.62062
H      2.68484    -1.93881     0.79083
H      5.07657    -0.97911    -0.40944
H      3.77612    -1.86997    -1.21345
C      0.30944     1.91266     0.37640
O     -0.51829     1.26458     1.32951
H     -0.30877     2.32822    -0.41624
H      0.06344     0.92775     2.03633
H      0.87628     2.72059     0.84072
H      1.02146     1.21271    -0.06912
C     -0.09017    -2.92181     0.76652
O      0.95110    -1.95554     0.93908
H      0.00477    -3.34938    -0.22827
H      0.73415    -1.36018     1.66895
H      0.00255    -3.71889     1.50678
H     -1.06841    -2.45298     0.84564
C     -3.09293     3.29964    -2.41630
O     -2.11902     2.29315    -2.22754
H     -3.19895     3.57024    -3.47159
H     -2.42577     1.49624    -2.69365
H     -4.07337     2.98272    -2.04825
H     -2.79019     4.18853    -1.86319
C      4.48999     1.15170     2.55832
O      3.68987     0.02947     2.89179
H      4.52356     1.82150     3.41337
H      3.79927    -0.63701     2.17635
H      5.50631     0.84234     2.31569
H      4.07502     1.68874     1.70213
C      0.66841    -0.22232     4.40068
O      1.08931     0.11359     3.08687
H      0.97572     0.54826     5.10779
H      2.07947     0.15435     3.07749
H     -0.41712    -0.30095     4.40529
H      1.09695    -1.17802     4.70499
