 48
-926.4771836014072
C     -0.54481    -3.18754    -1.51175
O      0.15591    -2.35622    -0.60891
H      0.15772    -3.57795    -2.24672
H     -0.52163    -1.86027    -0.11500
H     -1.01312    -4.03180    -0.99952
H     -1.32408    -2.63551    -2.04345
C     -0.80912     0.41410    -3.02849
O     -1.24694     1.64594    -2.46868
H     -1.68462    -0.14386    -3.36135
H     -0.43672     2.14886    -2.22740
H     -0.16513     0.58720    -3.89084
H     -0.26063    -0.18619    -2.29764
C     -2.84443     2.16552     0.46551
O     -2.79919     1.02741    -0.38720
H     -3.52853     1.95852     1.28665
H     -2.30995     1.30205    -1.19902
H     -1.85618     2.39158     0.87188
H     -3.20944     3.03598    -0.07782
C      1.02565     0.00610     3.23676
O      0.28492     0.57761     2.15671
H      0.50406     0.15816     4.18367
H     -0.36480    -0.06406     1.83698
H      1.19989    -1.05623     3.07343
H      1.99000     0.51084     3.28801
C     -2.76813    -1.84571     1.35970
O     -1.74721    -1.05656     0.77294
H     -3.30203    -1.28244     2.12561
H     -2.18415    -0.30015     0.30052
H     -3.47997    -2.17613     0.60246
H     -2.31035    -2.71842     1.82142
C      3.13678    -3.48066     1.20498
O      1.90727    -2.89362     1.58500
H      3.83417    -3.38329     2.03739
H      1.36155    -2.78139     0.79485
H      3.02379    -4.54383     0.97394
H      3.57213    -2.98349     0.33210
C      2.63355     0.17272    -0.06254
O      2.03078     1.40083     0.32197
H      2.75001    -0.49740     0.78689
H      1.37156     1.18906     1.01106
H      2.03878    -0.33403    -0.82501
H      3.61397     0.39239    -0.47997
C      0.85479     4.11972    -1.10918
O      1.00663     2.82161    -1.65434
H      1.75748     4.43247    -0.58341
H      1.44044     2.27481    -0.95769
H      0.66288     4.82266    -1.91805
H      0.01937     4.15028    -0.40395
