 48
-926.4818713421153
C      1.75860    -3.65187     1.63901
O      1.34558    -2.53054     0.87998
H      0.99145    -3.95147     2.35492
H      0.37118    -2.59921     0.77937
H      1.97365    -4.49654     0.98015
H      2.66718    -3.40057     2.18575
C      0.72628     2.98885    -3.20910
O      0.76321     2.00644    -2.19186
H      1.13045     2.55994    -4.12425
H      0.61590     2.46497    -1.33930
H     -0.29689     3.32280    -3.39867
H      1.32997     3.85539    -2.93733
C     -2.60608     0.37217     0.07832
O     -2.42817    -0.79530    -0.70826
H     -3.15317     1.12533    -0.48988
H     -1.85324    -0.55386    -1.46915
H     -3.20523     0.11577     0.95193
H     -1.65736     0.79969     0.41473
C      0.30390    -1.28533    -2.62067
O     -0.62801    -0.21448    -2.59145
H      0.77567    -1.43439    -1.64648
H     -0.10992     0.60954    -2.46188
H     -0.22370    -2.19774    -2.89846
H      1.08344    -1.10671    -3.36197
C     -1.58761    -4.01167    -0.02121
O     -1.26975    -2.78247     0.61074
H     -1.62467    -3.89667    -1.10573
H     -1.77173    -2.07234     0.14734
H     -0.81451    -4.74203     0.22247
H     -2.54888    -4.39208     0.32667
C     -0.53575     1.03410     3.25384
O      0.31292     1.60388     2.27364
H     -1.29890     1.76363     3.51897
H      1.03596     0.95276     2.12061
H     -1.02039     0.12970     2.87966
H      0.03037     0.77697     4.14915
C     -0.94736     4.00861     0.12762
O      0.20859     3.19204     0.11661
H     -1.21774     4.29418     1.14434
H      0.22898     2.66340     0.94112
H     -0.74903     4.91336    -0.44404
H     -1.79581     3.48850    -0.32441
C      2.90981     0.40491     0.52773
O      2.18764    -0.14129     1.62550
H      3.80366    -0.18528     0.32138
H      1.89479    -1.04307     1.35975
H      2.29567     0.44428    -0.37417
H      3.21865     1.41910     0.77877
