 36
-694.8484669077525
C      0.23610     1.39088    -2.82876
O      0.05532     0.42377    -1.81028
H      1.08437     1.08999    -3.44183
H     -0.49630     0.81457    -1.09978
H     -0.64984     1.46513    -3.46223
H      0.44862     2.37149    -2.39924
C      2.57006     2.33343    -0.22659
O      1.60363     2.18860     0.78745
H      2.48318     3.33739    -0.64331
H      1.63899     1.27014     1.10448
H      3.58903     2.22068     0.15739
H      2.42539     1.61195    -1.03470
C      2.34432    -1.28254     0.53578
O      1.67435    -0.44767     1.46996
H      2.19395    -2.33566     0.77665
H      0.79096    -0.81762     1.61412
H      1.99513    -1.09538    -0.48036
H      3.41029    -1.06828     0.58550
C     -1.88793    -2.16160    -1.78545
O     -0.62529    -2.08196    -1.13405
H     -2.37073    -1.18330    -1.80451
H     -0.19525    -1.26915    -1.46604
H     -1.77134    -2.51881    -2.80955
H     -2.52136    -2.86372    -1.24155
C     -1.72683     2.37589     0.78341
O     -1.62286     1.09372     0.16310
H     -2.01420     3.08948     0.01350
H     -1.48927     0.41083     0.83406
H     -2.49540     2.36795     1.55822
H     -0.77038     2.67414     1.20618
C     -1.80054    -2.20607     2.25993
O     -0.86410    -1.48153     1.47729
H     -2.16875    -1.54901     3.04388
H     -0.83482    -1.86731     0.57376
H     -2.64257    -2.53299     1.64706
H     -1.32997    -3.07839     2.71501
