 36
-694.8462619865018
C      0.31418     2.93007    -2.36713
O     -0.39851     2.53761    -1.20426
H     -0.39856     3.08592    -3.17300
H      0.21333     2.62644    -0.43872
H      0.85291     3.86192    -2.19241
H      1.03198     2.16445    -2.67049
C      2.44485     1.57485     0.50867
O      1.23215     2.22208     0.88307
H      2.25673     0.69485    -0.10769
H      0.74663     1.59437     1.45743
H      3.05310     2.27990    -0.05556
H      3.00597     1.26950     1.39210
C      1.26761    -2.12696    -2.37991
O      1.13424    -1.72559    -1.03141
H      1.43654    -1.26761    -3.03568
H      0.43790    -1.04746    -1.01430
H      2.12517    -2.79288    -2.45989
H      0.37753    -2.65918    -2.72830
C     -0.42786    -3.18977     2.12759
O     -0.81299    -2.92072     0.79005
H     -1.29664    -3.59657     2.64278
H     -0.03022    -2.72902     0.25678
H      0.37858    -3.92634     2.18091
H     -0.11231    -2.28062     2.64212
C     -2.24254    -0.45126    -1.11249
O     -0.92260    -0.01829    -0.80293
H     -2.39629    -1.41345    -0.63207
H     -0.82009     0.94102    -1.01425
H     -2.97852     0.25897    -0.73282
H     -2.36945    -0.55713    -2.19094
C     -1.43510     0.62926     2.63842
O     -0.21305     0.25683     2.01330
H     -2.12304    -0.21496     2.67977
H     -0.42845    -0.21887     1.19677
H     -1.20971     0.94644     3.65276
H     -1.91953     1.45311     2.11026
