 54
-1042.283712638492
C      2.89617     0.44982     1.29835
O      1.84009     1.39899     1.21243
H      2.78612    -0.08967     2.23782
H      1.86137     1.85047     0.33394
H      2.85508    -0.26809     0.48048
H      3.86134     0.95496     1.30165
C     -1.89330     3.17875    -0.32827
O     -1.17115     2.76399    -1.49079
H     -1.41669     4.06398     0.08314
H     -1.47003     1.86999    -1.71448
H     -2.92083     3.42513    -0.59430
H     -1.89309     2.40096     0.43233
C      0.08294    -0.28226    -1.95564
O     -1.18763    -0.01405    -1.34275
H     -0.03536    -1.08067    -2.68955
H     -1.01059     0.15107    -0.38478
H      0.44051     0.60726    -2.47322
H      0.80792    -0.58925    -1.20737
C     -0.27514    -4.93586    -1.35558
O     -0.44601    -3.93035    -0.37484
H      0.56694    -5.56735    -1.07577
H     -1.21873    -3.39562    -0.65329
H     -1.16405    -5.56476    -1.43210
H     -0.07304    -4.50002    -2.33820
C      2.81855    -3.30222     0.70225
O      1.78562    -2.46945     0.21754
H      3.36963    -3.77629    -0.11513
H      0.99765    -3.01544     0.04894
H      3.51706    -2.68958     1.27367
H      2.43806    -4.08442     1.36335
C     -3.30140    -2.68549    -2.32115
O     -2.43285    -2.38759    -1.24540
H     -4.04526    -1.89831    -2.45402
H     -2.10073    -1.47132    -1.35193
H     -2.74948    -2.80882    -3.25746
H     -3.82031    -3.61505    -2.09603
C     -0.61048     2.85756     3.33745
O      0.12181     3.46914     2.29241
H      0.04694     2.37451     4.06631
H      0.77662     2.83803     1.97003
H     -1.18293     3.63013     3.84989
H     -1.30668     2.10839     2.95491
C     -0.72347    -0.97784     1.92217
O     -0.61101     0.26322     1.22907
H     -1.35405    -1.65666     1.34953
H      0.28754     0.62528     1.35570
H      0.24818    -1.44816     2.06563
H     -1.19400    -0.81764     2.89481
C      1.79397     4.17873    -0.82202
O      1.46212     2.80510    -0.98658
H      1.32816     4.58826     0.07504
H      0.50413     2.77658    -1.21363
H      2.87594     4.26946    -0.73866
H      1.46449     4.76240    -1.68311
