 42
-810.6639682129338
C     -2.96924     0.41567     1.25219
O     -1.75394    -0.01656     0.65670
H     -2.82045     0.67663     2.30147
H     -1.33222    -0.68298     1.24633
H     -3.33988     1.29207     0.72317
H     -3.72525    -0.36931     1.19267
C      3.05250    -2.69682     1.84829
O      2.20813    -1.59140     1.58782
H      4.10284    -2.42129     1.74578
H      2.28024    -1.37024     0.63617
H      2.88195    -3.03018     2.87048
H      2.83936    -3.52608     1.16978
C     -0.63728    -3.13857     1.78414
O     -0.39147    -1.78116     2.10998
H      0.03631    -3.48111     0.99727
H      0.57657    -1.64634     2.01098
H     -0.49737    -3.77110     2.66153
H     -1.66709    -3.24576     1.44110
C      0.85074     1.94849     1.23292
O     -0.02886     1.90485     0.11161
H      1.65279     2.64817     1.00803
H     -0.67706     1.17969     0.27237
H      0.32327     2.29901     2.12032
H      1.28272     0.96760     1.43311
C      0.65262     1.52701    -3.21778
O      1.43225     1.38493    -2.04387
H      0.50493     2.58085    -3.46079
H      0.87669     1.69709    -1.30013
H      1.17795     1.05082    -4.04393
H     -0.32643     1.05526    -3.10464
C      0.85348    -1.69027    -1.51069
O      2.01602    -1.02196    -1.04278
H      0.60572    -1.36621    -2.52091
H      1.98572    -0.12017    -1.42549
H      1.05097    -2.76202    -1.53668
H     -0.00929    -1.50737    -0.86743
C     -2.70532     2.38370    -1.87318
O     -2.33444     3.39365    -0.96106
H     -2.34795     1.39610    -1.56929
H     -1.47104     3.15845    -0.60891
H     -3.79321     2.35457    -1.92889
H     -2.32332     2.60114    -2.87424
