 48
-926.4727182674628
C     -0.01489    -0.48803     4.07711
O     -1.01610     0.36204     3.51379
H      0.82948    -0.57691     3.38944
H     -1.80361    -0.19704     3.33961
H      0.34021    -0.05851     5.01270
H     -0.41511    -1.48443     4.26556
C      2.25654     3.39292    -2.10760
O      2.15573     2.07004    -1.61801
H      1.90961     3.47630    -3.14227
H      1.36129     1.65110    -1.98945
H      1.67641     4.09505    -1.49925
H      3.30253     3.70191    -2.07577
C     -1.28034    -2.49813    -0.19418
O     -1.93519    -1.28263     0.17167
H     -0.25589    -2.52350     0.17615
H     -1.29055    -0.56405     0.20998
H     -1.83777    -3.32466     0.24576
H     -1.27527    -2.61575    -1.27674
C      3.00048    -0.33627     0.67801
O      1.71549    -0.87923     0.41880
H      3.07031     0.01402     1.71020
H      1.06116    -0.19210     0.65776
H      3.74534    -1.11887     0.53764
H      3.21423     0.49476     0.00679
C     -0.29566     2.21795     0.58092
O     -0.14568     0.89728     1.10271
H     -0.64396     2.15067    -0.44594
H     -0.47068     0.85357     2.03684
H     -1.01841     2.77842     1.17270
H      0.66217     2.73247     0.60312
C      2.42778    -1.43650    -2.83199
O      1.20116    -1.51329    -2.12306
H      2.91041    -0.46625    -2.69155
H      1.42210    -1.39855    -1.17385
H      3.11646    -2.22070    -2.51210
H      2.22609    -1.57672    -3.89307
C     -4.24017    -0.67602     2.58894
O     -2.96491    -1.29560     2.63986
H     -4.60742    -0.55989     3.60718
H     -2.65572    -1.40393     1.71503
H     -4.18269     0.30961     2.11917
H     -4.94852    -1.28850     2.02976
C     -0.44607     0.83885    -4.05901
O     -0.10011     0.78339    -2.68696
H     -0.08820     1.77979    -4.48029
H      0.19993    -0.12513    -2.48208
H      0.00436     0.01714    -4.61855
H     -1.52983     0.79452    -4.18412
