 42
-810.6656983332284
C     -2.68506    -0.71269     0.63250
O     -1.83431    -1.77860     1.03403
H     -3.31943    -0.39779     1.46264
H     -1.02091    -1.38470     1.40391
H     -2.11471     0.14383     0.27306
H     -3.32539    -1.06156    -0.17617
C     -0.04133    -0.02080     3.31965
O      0.28423    -0.37870     1.98641
H      0.86439     0.19859     3.88896
H      0.31479     0.44665     1.46913
H     -0.69210     0.85433     3.34186
H     -0.55849    -0.85163     3.79965
C      1.27228    -1.01319    -1.32487
O      0.02541    -0.85918    -1.99914
H      1.78962    -0.05833    -1.26973
H     -0.49111    -1.67911    -1.85297
H      1.12916    -1.38659    -0.31137
H      1.91082    -1.71263    -1.86518
C     -0.50997    -4.24017    -0.89610
O     -1.26157    -3.07746    -1.19769
H     -0.93284    -4.77365    -0.04363
H     -1.55574    -2.69885    -0.33930
H     -0.52516    -4.89618    -1.76266
H      0.52763    -3.98841    -0.66218
C      0.18170     2.42476    -2.63703
O     -0.64854     1.70055    -1.73110
H      0.10885     2.01462    -3.64378
H     -0.51091     0.74361    -1.92033
H     -0.15458     3.45945    -2.66039
H      1.22680     2.39657    -2.31988
C      3.47088     1.18054     0.99393
O      2.82508     2.03826     0.07311
H      2.92415     0.24296     1.13112
H      1.93693     2.21746     0.39979
H      4.46040     0.94730     0.60285
H      3.59245     1.65242     1.97367
C     -0.79081     3.05709     1.39713
O     -0.01838     2.05156     0.76804
H     -1.80983     2.70103     1.55971
H     -0.32564     1.97008    -0.17363
H     -0.33668     3.29275     2.35740
H     -0.82347     3.96187     0.78942
