 60
-1158.0917370780926
C      1.98689     1.67629    -2.43447
O      0.99528     2.26323    -1.60659
H      1.77635     0.62321    -2.61847
H      0.11725     1.97903    -1.91792
H      2.06739     2.20686    -3.38429
H      2.94427     1.75193    -1.91854
C      1.34452     3.96266     1.36048
O      0.47592     2.89957     1.02048
H      1.22693     4.19173     2.41956
H      0.64780     2.66981     0.09265
H      2.39059     3.69702     1.17903
H      1.11976     4.86476     0.78513
C      0.74153    -3.66563     0.59658
O      1.81686    -2.85222     0.14677
H     -0.21732    -3.16491     0.46474
H      1.51329    -2.41402    -0.67151
H      0.72864    -4.61275     0.05715
H      0.87802    -3.88135     1.65614
C     -2.80927    -1.26463    -0.14149
O     -1.56805    -0.57278    -0.11428
H     -3.17919    -1.29755    -1.16483
H     -1.25269    -0.52016     0.83611
H     -2.68127    -2.28297     0.22499
H     -3.53996    -0.75929     0.49008
C      1.22766    -1.77833     4.98154
O      1.90384    -0.58780     4.62959
H      0.26096    -1.85639     4.47786
H      2.16628    -0.66807     3.70562
H      1.81620    -2.66859     4.74131
H      1.05653    -1.76128     6.05609
C      2.53623     0.26835     1.00106
O      2.04979    -0.80866     1.80330
H      3.59218     0.11936     0.78118
H      2.06733    -1.62870     1.25121
H      1.98822     0.35167     0.06430
H      2.41373     1.19723     1.54885
C     -0.93413     0.63837     3.13529
O     -0.64015    -0.46407     2.27122
H     -1.96095     0.52422     3.47699
H      0.33353    -0.54889     2.19957
H     -0.26950     0.63692     3.99484
H     -0.83424     1.57913     2.59935
C     -3.11396     0.11804    -5.08248
O     -2.74019    -0.31877    -3.78714
H     -3.63326    -0.70466    -5.57249
H     -2.32655     0.40955    -3.30849
H     -3.79086     0.97654    -5.04334
H     -2.24252     0.38555    -5.68785
C     -0.02914    -2.20412    -2.77973
O      0.56433    -1.39958    -1.77090
H     -0.64157    -3.00136    -2.35319
H     -0.13809    -1.02026    -1.21622
H     -0.65288    -1.61439    -3.44540
H      0.77144    -2.65857    -3.36021
C     -2.30645     2.59145    -1.28503
O     -1.56645     1.49010    -1.80174
H     -2.26052     3.40074    -2.01007
H     -1.59487     0.78129    -1.12494
H     -3.35122     2.31507    -1.13182
H     -1.88601     2.93741    -0.34036
