 48
-926.4810152304223
C     -0.40979    -0.89838     2.53450
O     -0.20316    -2.14397     1.88266
H     -1.30950    -0.93191     3.14816
H     -0.94998    -2.26842     1.25344
H      0.43764    -0.70501     3.18988
H     -0.49231    -0.07419     1.82030
C     -1.17831     1.76799    -2.36062
O     -2.00341     2.04910    -1.23911
H     -1.81688     1.60558    -3.22755
H     -1.42058     2.35209    -0.51334
H     -0.51665     2.60784    -2.57609
H     -0.56667     0.87763    -2.19416
C     -3.58478     0.52132     1.11942
O     -3.37991     0.02461    -0.19855
H     -4.56443     0.99298     1.19828
H     -2.94414     0.74804    -0.70060
H     -3.54521    -0.31005     1.82312
H     -2.81622     1.24939     1.38695
C      2.96629    -0.67376    -2.42305
O      1.90523    -0.40806    -1.52737
H      3.92808    -0.71658    -1.90608
H      1.95475    -1.07686    -0.80950
H      2.81008    -1.61941    -2.94553
H      3.00487     0.12357    -3.16394
C     -1.38277    -2.42244    -1.26769
O     -2.06811    -2.27263    -0.03318
H     -0.95564    -3.42379    -1.30596
H     -2.61518    -1.45718    -0.10925
H     -2.06183    -2.31083    -2.11322
H     -0.57527    -1.69196    -1.36983
C      2.36026    -3.49210     0.19916
O      2.03577    -2.14479     0.49067
H      3.38715    -3.54013    -0.16027
H      1.23622    -2.15903     1.07183
H      2.27694    -4.11511     1.08927
H      1.69553    -3.89752    -0.56738
C     -0.15154     3.87535     1.41323
O     -0.28666     2.62757     0.75861
H     -1.13525     4.21687     1.73282
H      0.60210     2.39247     0.40462
H      0.48373     3.77901     2.29692
H      0.28634     4.62703     0.75291
C      3.00326     1.57464     0.76310
O      2.06802     1.93509    -0.24540
H      2.83473     2.19593     1.64261
H      1.98594     1.15109    -0.82847
H      2.89188     0.52646     1.04302
H      4.02240     1.74426     0.41360
