 18
-347.41383599280186
C     -1.13501     2.30511    -0.54622
O     -0.87761     1.43663     0.54689
H     -0.65354     3.27478    -0.40653
H      0.07778     1.30401     0.60825
H     -0.78734     1.87052    -1.48736
H     -2.21120     2.45247    -0.60495
C     -1.36131    -2.14195    -0.60925
O     -0.82729    -1.46790     0.52032
H     -0.96630    -3.15557    -0.60637
H     -1.19361    -0.57359     0.54030
H     -2.45111    -2.18867    -0.56806
H     -1.06372    -1.65038    -1.53951
C      2.53444    -0.14174    -0.53407
O      1.66416     0.02850     0.57483
H      3.22052     0.70219    -0.54909
H      1.06579    -0.73005     0.60514
H      3.11217    -1.06398    -0.44952
H      1.97753    -0.15939    -1.47471
