 54
-1042.2861035112007
C      3.37061    -0.58813    -1.00147
O      2.90426    -0.01481     0.21102
H      3.89513    -1.51446    -0.76679
H      2.39882     0.79119    -0.02956
H      2.54903    -0.80612    -1.68705
H      4.07072     0.08518    -1.49721
C     -0.81855     0.10385    -4.15805
O      0.23455    -0.27048    -3.27306
H     -0.96224    -0.69631    -4.88406
H      0.13521     0.25269    -2.46409
H     -1.75178     0.26095    -3.61638
H     -0.56034     1.01850    -4.69578
C     -2.35646    -2.16360     0.51185
O     -2.21191    -1.44538    -0.70704
H     -2.92631    -1.54710     1.20084
H     -1.70768    -2.00636    -1.33606
H     -2.90342    -3.09290     0.34500
H     -1.39122    -2.39624     0.96490
C      0.16027     3.07645     2.71134
O     -0.97649     2.76985     1.93547
H      0.07975     4.10541     3.06321
H     -1.04884     1.79894     1.91327
H      0.24904     2.42664     3.58744
H      1.07618     2.97827     2.12358
C     -1.28375    -0.17231     3.57489
O     -1.00831     0.08007     2.21323
H     -1.93176    -1.04521     3.68758
H     -0.20702    -0.43098     1.97032
H     -0.36565    -0.34601     4.13982
H     -1.79540     0.68701     4.00823
C     -2.16234     1.88701    -1.10507
O     -1.12819     0.91256    -0.99766
H     -3.03741     1.46237    -1.59643
H     -1.54118     0.05026    -0.73707
H     -2.44058     2.24729    -0.11766
H     -1.79773     2.72438    -1.69712
C      1.13908     3.32703    -0.68624
O      1.26306     1.92579    -0.51499
H      0.30364     3.72248    -0.11199
H      0.36459     1.54183    -0.54637
H      2.05934     3.79713    -0.34391
H      1.00351     3.57293    -1.74110
C      1.85573    -1.91653     2.81110
O      1.19812    -1.33076     1.70476
H      2.30555    -1.15279     3.45027
H      1.88583    -0.86528     1.16974
H      1.13397    -2.48250     3.39964
H      2.63817    -2.60161     2.48096
C      0.57185    -3.27634    -1.57524
O     -0.49369    -2.72966    -2.34036
H      0.28594    -4.27886    -1.26571
H     -0.13987    -1.95520    -2.81737
H      1.48209    -3.35061    -2.17156
H      0.78255    -2.67821    -0.68569
