 48
-926.4784619993063
C      0.01617     3.45079    -2.53989
O     -0.06915     2.32483    -1.68914
H     -0.14560     4.38015    -1.98896
H      0.61438     2.43319    -0.98985
H      0.99431     3.50159    -3.02343
H     -0.74570     3.36603    -3.31346
C     -1.95245     1.32207     0.88676
O     -2.25783     1.27291    -0.50354
H     -2.86936     1.14830     1.44672
H     -1.53062     1.73182    -0.97190
H     -1.21712     0.56295     1.16772
H     -1.56153     2.29908     1.16646
C     -1.84022    -0.97178    -2.78858
O     -2.21322    -1.21023    -1.43380
H     -1.28473    -1.83219    -3.16048
H     -2.37390    -0.31677    -1.04480
H     -2.72942    -0.84028    -3.40256
H     -1.21502    -0.08160    -2.86980
C      1.74364    -1.05399    -1.47782
O      1.87298    -1.64711    -0.19031
H      2.73648    -0.80647    -1.84715
H      1.03164    -2.11198    -0.03243
H      1.27845    -1.75185    -2.17397
H      1.14116    -0.14300    -1.45066
C     -0.88871    -4.05100    -0.14924
O     -0.57794    -2.67689    -0.01995
H     -1.95863    -4.21397    -0.02209
H     -1.21820    -2.14273    -0.56414
H     -0.58389    -4.42181    -1.12902
H     -0.35307    -4.60134     0.62082
C     -2.05359    -1.93760     2.87246
O     -0.68630    -1.72598     2.59228
H     -2.28551    -3.00007     2.98208
H     -0.53805    -2.04023     1.69113
H     -2.29760    -1.44094     3.81053
H     -2.70095    -1.53065     2.09013
C      2.00851     0.17741     2.75808
O      2.49200     0.38879     1.43687
H      2.13900    -0.86044     3.06131
H      2.31642    -0.42340     0.91445
H      2.57107     0.82001     3.43237
H      0.94779     0.42141     2.83117
C      2.82887     3.44380     0.12968
O      1.70558     2.58907     0.24384
H      3.38024     3.48394     1.06953
H      2.00962     1.77245     0.71072
H      3.50533     3.09385    -0.65368
H      2.49147     4.45042    -0.11230
