 36
-694.8505063469053
C     -2.47093    -1.72770    -2.55654
O     -1.56807    -1.40173    -1.51170
H     -1.95957    -2.25482    -3.36388
H     -0.97653    -0.68018    -1.80742
H     -3.24138    -2.38184    -2.15056
H     -2.94580    -0.83111    -2.96173
C      3.60180     2.22708    -0.13392
O      3.40416     0.88184    -0.52809
H      3.91668     2.80426    -1.00426
H      2.65748     0.54048    -0.01766
H      2.68440     2.67410     0.26139
H      4.38329     2.30407     0.62602
C      1.27485    -1.60530     0.36369
O      1.08685    -0.20182     0.55115
H      1.97935    -1.75015    -0.45284
H      0.47717    -0.07285     1.32277
H      1.68887    -2.05597     1.26455
H      0.33242    -2.08947     0.11468
C     -2.89145     0.92722     0.30349
O     -2.60851    -0.39816     0.74792
H     -2.16590     1.24896    -0.44494
H     -2.28665    -0.89139    -0.03356
H     -3.89670     0.98001    -0.11744
H     -2.83777     1.59784     1.16043
C      1.05584     1.23863    -2.69821
O      0.06330     0.76695    -1.79927
H      1.57610     2.09975    -2.28284
H      0.48884     0.60105    -0.93922
H      1.79247     0.46458    -2.91753
H      0.56142     1.53420    -3.62191
C     -0.62737    -0.91692     3.61741
O     -0.63194    -0.05361     2.49057
H     -1.33220    -0.56653     4.37217
H     -1.46149    -0.22047     1.98569
H     -0.89388    -1.93609     3.33053
H      0.37051    -0.91978     4.05135
