 36
-694.8481366785427
C     -0.41607     1.40086     2.27374
O      0.34004     0.43641     1.55436
H     -0.78829     0.97407     3.20591
H     -0.27697    -0.27881     1.28173
H      0.23839     2.23568     2.51316
H     -1.25848     1.75209     1.67982
C      2.78096     0.22905    -1.24616
O      1.49466     0.82900    -1.09046
H      3.51536     0.70798    -0.60074
H      1.28778     0.90096    -0.14430
H      2.74689    -0.83178    -1.00163
H      3.08249     0.35312    -2.28405
C      2.28328    -2.25197     1.48970
O      2.76557    -0.95074     1.76375
H      3.00825    -2.76877     0.85875
H      1.98817    -0.38619     1.85510
H      2.15835    -2.82847     2.40964
H      1.32529    -2.22110     0.96304
C     -0.58727    -0.97548    -3.25459
O     -0.66431    -0.41692    -1.95398
H     -0.60551    -0.18950    -4.01121
H      0.18822     0.03865    -1.75786
H      0.32797    -1.55867    -3.37071
H     -1.44364    -1.62964    -3.39900
C     -2.67823    -1.29511     0.91169
O     -1.29995    -1.37993     0.56046
H     -2.77016    -1.56406     1.96188
H     -1.20219    -1.20284    -0.39207
H     -3.05918    -0.28467     0.76449
H     -3.27118    -1.99426     0.32086
C     -1.60468     2.89420    -0.91114
O     -2.31027     1.67841    -0.71225
H     -1.67872     3.23471    -1.94643
H     -1.89385     0.99766    -1.25379
H     -2.05163     3.65074    -0.26609
H     -0.54735     2.79818    -0.65000
