 60
-1158.0951287812375
C      0.32853    -2.41775    -3.76258
O      0.52733    -1.10672    -3.26444
H      0.91976    -2.53849    -4.66801
H      0.06491    -1.08023    -2.40399
H      0.65212    -3.16446    -3.03521
H     -0.72390    -2.59612    -4.00103
C      1.42876    -4.03484     2.83661
O      1.35544    -2.76047     2.22646
H      2.41112    -4.19999     3.28222
H      1.42142    -2.09274     2.94556
H      0.67053    -4.14376     3.61677
H      1.26101    -4.79820     2.07842
C      1.29823     1.71578    -1.75040
O      0.22621     1.60455    -0.81575
H      0.91098     1.89042    -2.75154
H     -0.15421     0.70728    -0.89279
H      1.91518     2.56015    -1.44852
H      1.90969     0.81444    -1.75077
C     -0.55931     0.89466    -5.93967
O     -0.78828     0.93993    -4.54563
H     -1.24991     1.58166    -6.42937
H     -0.26180     0.23228    -4.13580
H      0.46220     1.19773    -6.19162
H     -0.73061    -0.10635    -6.34663
C     -2.32431    -0.60253    -1.44790
O     -0.95966    -0.80549    -1.06527
H     -2.35978    -0.13961    -2.43099
H     -0.94651    -1.43175    -0.28559
H     -2.84249    -1.55941    -1.48634
H     -2.82564     0.05415    -0.74042
C      2.26851    -1.11554     5.26928
O      1.44424    -0.90713     4.13849
H      1.87736    -1.95635     5.84002
H      1.68534    -0.02927     3.76012
H      3.29768    -1.33606     4.97250
H      2.27590    -0.23541     5.91207
C     -1.70227    -1.85115     2.09226
O     -0.95650    -2.35037     0.98386
H     -1.53396    -0.78060     2.22335
H     -0.06091    -2.55696     1.33746
H     -2.76020    -2.02942     1.91323
H     -1.40543    -2.36354     3.00332
C      2.95921     0.84345     1.76769
O      2.20301     1.29451     2.89025
H      3.01503    -0.24623     1.77917
H      1.49475     1.87421     2.54590
H      2.48826     1.15950     0.83818
H      3.97039     1.24696     1.81259
C     -1.05056     3.19183     1.89163
O      0.23540     2.63274     1.65907
H     -1.19076     3.31253     2.96405
H      0.23302     2.31029     0.73972
H     -1.13498     4.16744     1.41150
H     -1.83825     2.54696     1.50027
C     -2.84546     3.07388    -2.59114
O     -2.53991     2.64391    -1.27343
H     -2.51273     4.10248    -2.76218
H     -1.58862     2.50425    -1.20521
H     -2.39336     2.42591    -3.34322
H     -3.92884     3.04472    -2.70860
