 36
-694.8435203417246
C     -1.81996     2.31894    -1.33149
O     -0.94934     1.21861    -1.54118
H     -1.38351     3.24053    -1.71835
H     -0.08442     1.46130    -1.13985
H     -2.75250     2.12539    -1.85885
H     -2.03598     2.45683    -0.26878
C      2.26543     0.72942    -0.40514
O      1.34921     1.81202    -0.31594
H      2.33938     0.41677    -1.44620
H      1.21097     1.97665     0.64063
H      3.25990     1.03926    -0.08177
H      1.93658    -0.11707     0.19963
C     -0.40396    -1.61423     2.97588
O     -0.06407    -0.65634     1.99483
H     -1.38785    -1.41288     3.40529
H     -0.71608    -0.72965     1.25730
H     -0.41155    -2.62007     2.55220
H      0.34015    -1.58394     3.77172
C      0.74555    -1.57505    -3.05165
O     -0.29275    -2.48843    -3.38666
H      1.35096    -1.32130    -3.92588
H     -0.90276    -2.04468    -3.97524
H      0.35469    -0.66493    -2.59961
H      1.38660    -2.07646    -2.32628
C      1.95773     1.79552     3.30912
O      0.93232     1.79158     2.33570
H      1.54723     1.65040     4.31143
H      0.52305     0.90112     2.34195
H      2.69324     1.00872     3.12094
H      2.45915     2.76082     3.27855
C     -2.06766    -2.09584    -0.55931
O     -1.77212    -0.83761     0.03196
H     -1.23375    -2.45793    -1.15750
H     -1.58072    -0.18191    -0.66914
H     -2.27654    -2.80799     0.23902
H     -2.95863    -2.02515    -1.18576
