 36
-694.8524902946151
C     -0.55405     2.94869    -0.88682
O      0.62404     2.18521    -1.07461
H     -0.94293     3.21627    -1.86828
H      0.90954     1.82902    -0.22759
H     -1.32081     2.37696    -0.36262
H     -0.35483     3.87132    -0.33332
C      1.13118    -0.67784    -2.73958
O      0.28004    -1.27987    -1.76637
H      0.99623    -1.18439    -3.69457
H      0.80825    -1.40667    -0.95470
H      0.89146     0.37886    -2.84699
H      2.17344    -0.76478    -2.43238
C      2.14787    -2.41713     1.36361
O      1.80014    -1.40567     0.43462
H      1.44472    -2.44215     2.19911
H      1.73508    -0.55265     0.89757
H      2.11766    -3.37586     0.85005
H      3.15288    -2.25839     1.75829
C      1.23883     1.88368     2.68820
O      1.06182     0.93605     1.64900
H      2.21339     2.34753     2.56227
H      0.11215     0.66828     1.62804
H      0.46880     2.65553     2.63920
H      1.19535     1.39971     3.66514
C     -3.04252    -0.87503    -1.63219
O     -2.00024     0.00215    -1.23392
H     -3.50892    -0.51897    -2.55146
H     -1.14914    -0.38019    -1.54820
H     -2.65897    -1.88275    -1.79777
H     -3.80460    -0.91194    -0.85257
C     -1.46061    -1.36723     1.61954
O     -1.40470     0.02330     1.33824
H     -2.47622    -1.74720     1.50495
H     -1.69011     0.13142     0.39870
H     -0.80233    -1.93667     0.96263
H     -1.15738    -1.52826     2.65414
