 36
-694.8495466389359
C     -2.40874     2.76998    -2.24168
O     -1.87400     1.66012    -2.93601
H     -1.72751     3.62513    -2.25652
H     -1.02670     1.44537    -2.52385
H     -3.33405     3.06024    -2.73652
H     -2.63433     2.52414    -1.20108
C      3.56286     0.61919    -0.15457
O      2.20514     0.45386     0.21302
H      4.21810     0.48984     0.70909
H      2.10786    -0.42093     0.65168
H      3.85562    -0.09930    -0.92413
H      3.69754     1.62686    -0.54170
C      2.32336    -2.69383     2.29741
O      1.63523    -1.90058     1.34677
H      3.34507    -2.83813     1.94922
H      0.74622    -1.69083     1.71372
H      2.34980    -2.20995     3.27602
H      1.84949    -3.67138     2.40189
C     -2.97467    -0.46399    -0.44651
O     -1.94722     0.24841     0.23001
H     -3.21185     0.00171    -1.40068
H     -1.26832     0.48902    -0.42252
H     -2.67461    -1.50012    -0.62025
H     -3.85869    -0.45977     0.18615
C      0.52649    -0.58064    -2.23669
O      0.24926     0.62208    -1.52043
H      1.39030    -0.44392    -2.88619
H      0.97460     0.70575    -0.85735
H      0.72753    -1.39594    -1.54178
H     -0.33692    -0.82758    -2.85188
C     -0.37422     0.16984     3.09044
O     -0.66847    -0.93554     2.24399
H     -1.19806     0.88333     3.09498
H     -1.21764    -0.57358     1.51540
H     -0.21918    -0.19606     4.10390
H      0.52872     0.68463     2.75289
