 48
-926.4732667507652
C     -2.07285    -0.89749     3.54281
O     -1.04116    -0.19414     2.87986
H     -2.53087    -1.64108     2.88662
H     -1.42291     0.13207     2.04379
H     -1.64538    -1.40982     4.40254
H     -2.85296    -0.21734     3.89375
C      0.60395    -2.42424    -3.12944
O      0.21397    -2.17974    -1.78835
H      0.57310    -1.50882    -3.71864
H      0.94216    -1.70564    -1.33084
H      1.61380    -2.83686    -3.16978
H     -0.07773    -3.15461    -3.56318
C     -2.46297    -0.42979    -2.65782
O     -2.08134    -0.94296    -1.38530
H     -1.60819    -0.01418    -3.18898
H     -1.25287    -1.46558    -1.51909
H     -2.91590    -1.21641    -3.26196
H     -3.20371     0.35580    -2.51110
C      1.30583     2.67421     0.39548
O      0.58560     1.64325    -0.28927
H      2.35599     2.57885     0.12276
H     -0.28356     1.51312     0.12297
H      0.94645     3.65656     0.08820
H      1.21264     2.55269     1.47223
C     -3.23907     1.42488     0.61629
O     -2.02099     0.70274     0.57544
H     -3.21404     2.11390     1.45864
H     -2.08572     0.03920    -0.16998
H     -3.37783     2.00379    -0.29656
H     -4.08646     0.74873     0.73891
C      2.15394    -1.18215     0.88220
O      1.98034    -0.68580    -0.43958
H      2.55507    -2.19240     0.81630
H      1.55386     0.18667    -0.36938
H      2.85706    -0.56447     1.43965
H      1.20931    -1.21555     1.42851
C      2.10334     0.29027     4.33223
O      1.42876     0.93718     3.27367
H      2.96647     0.89375     4.61072
H      0.55972     0.51941     3.16792
H      1.46577     0.17169     5.21287
H      2.46024    -0.70159     4.03640
C      2.16882     0.78785    -3.45681
O      0.78574     0.97358    -3.21016
H      2.29940     0.63749    -4.52771
H      0.66595     1.22927    -2.28898
H      2.75455     1.66082    -3.15755
H      2.55929    -0.08671    -2.93400
