 42
-810.6675215762493
C     -2.25638     1.52155     1.51455
O     -2.24672     0.12196     1.77857
H     -1.49950     2.00035     2.13588
H     -2.57173    -0.30894     0.95904
H     -2.02879     1.71346     0.46526
H     -3.23004     1.94798     1.75350
C     -0.08451    -1.92532     3.19220
O      0.14424    -0.65150     2.60704
H     -0.10724    -2.70082     2.42260
H     -0.74219    -0.32324     2.32218
H      0.71553    -2.14129     3.89757
H     -1.03455    -1.93622     3.72354
C      2.20560    -0.81736    -2.55443
O      1.12717    -0.99981    -1.65437
H      2.57867     0.20631    -2.51766
H      1.48014    -0.88256    -0.75161
H      3.02639    -1.50032    -2.32855
H      1.85586    -1.03257    -3.56293
C      1.09298     2.95963    -0.39171
O      2.11434     2.03003    -0.69297
H      1.23017     3.82938    -1.03287
H      2.05416     1.29054    -0.07668
H      0.10561     2.53770    -0.58855
H      1.13319     3.30121     0.64716
C     -2.49712    -2.08926    -0.96410
O     -2.88847    -0.75265    -0.67494
H     -3.15390    -2.52222    -1.71910
H     -2.34904    -0.17553    -1.24613
H     -1.46775    -2.11700    -1.32411
H     -2.57418    -2.68288    -0.05201
C      3.19552    -1.07135     1.33375
O      2.01448    -0.48256     0.82269
H      4.03246    -0.76541     0.71012
H      1.31793    -0.52646     1.52874
H      3.38129    -0.74127     2.35470
H      3.11731    -2.16005     1.32303
C     -0.66678     1.54201    -3.07196
O     -0.99656     0.59809    -2.06995
H     -1.36581     2.37453    -3.00648
H     -0.21132     0.02774    -1.93719
H      0.34678     1.91999    -2.93407
H     -0.74756     1.09626    -4.06543
