 60
-1158.0921716753144
C     -1.57362    -2.07564    -3.51198
O     -1.57690    -2.56295    -2.18079
H     -0.86490    -2.63264    -4.12884
H     -0.71628    -2.32588    -1.78445
H     -2.56827    -2.21043    -3.93392
H     -1.31930    -1.01690    -3.54341
C      1.59566     2.22465     4.16904
O      0.27050     1.95203     3.75110
H      1.65159     2.06513     5.24498
H      0.21032     2.19957     2.82160
H      2.31527     1.56011     3.68374
H      1.88525     3.25883     3.96161
C      3.76750     1.48340     0.34505
O      2.58144     1.79456    -0.37244
H      3.76742     2.04638     1.27848
H      2.50103     1.15858    -1.12044
H      3.82129     0.42121     0.58474
H      4.65037     1.76629    -0.22796
C     -1.40016    -0.58496     1.98591
O     -0.24998    -0.32851     1.16940
H     -2.31137    -0.30457     1.46257
H     -0.14632     0.64421     1.07190
H     -1.42788    -1.65322     2.19256
H     -1.31143    -0.04633     2.92784
C      1.31733    -2.87141    -0.26610
O      0.60553    -1.76514    -0.80308
H      1.69129    -3.47212    -1.09365
H      0.25382    -1.21694    -0.05305
H      2.15853    -2.53668     0.33863
H      0.66375    -3.49018     0.34962
C     -0.44862     2.99525     0.01834
O      0.37548     2.27358     0.93782
H     -1.49505     2.81964     0.26114
H      1.27065     2.17168     0.51790
H     -0.23505     4.06026     0.09617
H     -0.26746     2.65859    -0.99933
C     -4.66696    -1.47325    -1.03196
O     -3.32222    -1.21880    -0.68373
H     -5.01003    -2.42546    -0.62337
H     -2.75308    -1.85686    -1.16633
H     -5.28504    -0.67884    -0.61598
H     -4.80105    -1.48873    -2.11702
C      1.31973     0.37703    -3.30413
O      2.17751    -0.05918    -2.25829
H      0.40657     0.83199    -2.91271
H      1.70349    -0.76824    -1.78910
H      1.85178     1.10748    -3.90934
H      1.04773    -0.46049    -3.94959
C      1.96871    -1.31562     3.94965
O      2.29410    -1.17023     2.57852
H      2.87130    -1.15900     4.54043
H      1.53354    -0.78143     2.13145
H      1.21543    -0.59157     4.26797
H      1.59934    -2.32357     4.15705
C     -3.13176     1.74504    -2.35458
O     -2.08215     0.95747    -1.83216
H     -3.21212     2.69459    -1.81751
H     -2.46887     0.22497    -1.32150
H     -2.93483     1.97095    -3.40538
H     -4.09570     1.23558    -2.28751
