 24
-463.22893967055717
C      2.85660     0.89201    -0.40327
O      1.77765     0.64713     0.48673
H      3.15288     1.93472    -0.30102
H      1.53786    -0.29657     0.40898
H      3.71245     0.26111    -0.15987
H      2.56396     0.70535    -1.43944
C     -1.02409     2.81457     0.64465
O     -0.47685     1.91106    -0.29883
H     -0.49315     3.76774     0.62336
H      0.39496     1.61229     0.03532
H     -2.06619     2.99206     0.38494
H     -0.97546     2.40414     1.65602
C     -2.58932    -0.70043     0.10290
O     -1.47580    -0.52869    -0.75368
H     -2.33099    -0.48314     1.14271
H     -1.21347     0.41505    -0.70041
H     -3.41550    -0.05310    -0.19469
H     -2.92331    -1.73388     0.03302
C      0.48486    -3.06127     0.62284
O      0.75983    -1.82525    -0.01147
H     -0.05235    -2.91180     1.56264
H     -0.08506    -1.47727    -0.36601
H     -0.11289    -3.70887    -0.02306
H      1.42969    -3.55796     0.83211
