 24
-463.22907623095597
C      2.21122    -0.38770     1.82674
O      1.00032    -0.92935     1.32559
H      2.42836     0.58266     1.37276
H      0.28320    -0.30454     1.56418
H      2.16502    -0.26761     2.90941
H      3.01940    -1.07775     1.59021
C     -2.01640     1.13181    -2.02998
O     -0.88710     1.20130    -1.17657
H     -2.55287     0.18916    -1.89626
H     -0.28091     0.46828    -1.40172
H     -2.68048     1.95721    -1.78070
H     -1.72279     1.22421    -3.07727
C     -2.24871     0.35867     1.80829
O     -0.97389     0.89963     1.50413
H     -2.40571    -0.60065     1.30746
H     -0.98909     1.16440     0.56187
H     -2.30933     0.20966     2.88348
H     -3.04463     1.04144     1.50754
C      2.06335    -1.16337    -1.97859
O      0.81771    -0.91154    -1.35276
H      2.51655    -2.07983    -1.59412
H      0.93531    -1.05531    -0.38954
H      1.89552    -1.28343    -3.04687
H      2.75905    -0.33570    -1.81916
