 42
-810.6648653735946
C     -1.83237    -1.35179     1.55103
O     -1.44494    -1.57495     0.20379
H     -2.15614    -2.29581     1.98998
H     -0.55107    -1.23125     0.04877
H     -1.02428    -0.93651     2.14749
H     -2.67814    -0.66434     1.58528
C      1.07657     2.17038     3.14509
O      0.21931     1.20406     2.56277
H      1.87080     2.46008     2.45117
H      0.75121     0.38922     2.42939
H      0.49016     3.05160     3.40046
H      1.53393     1.77965     4.05486
C     -1.87058    -0.85542    -3.10799
O     -1.85341    -2.15979    -2.57300
H     -2.84644    -0.37502    -2.98540
H     -1.90719    -2.07998    -1.61272
H     -1.11715    -0.21330    -2.64748
H     -1.65735    -0.92047    -4.17459
C     -2.07483     1.83782    -0.05058
O     -0.72334     2.17425     0.22208
H     -2.18661     0.78073    -0.28966
H     -0.46154     1.80510     1.09154
H     -2.70723     2.07898     0.80541
H     -2.41290     2.43192    -0.89824
C      1.28064    -1.86296    -1.70569
O      1.09319    -0.85765    -0.70914
H      2.33885    -2.11757    -1.78600
H      1.08980     0.03754    -1.13973
H      0.71581    -2.75016    -1.42683
H      0.91209    -1.51390    -2.66718
C      1.50102    -2.25731     2.38440
O      1.67970    -0.92719     1.92640
H      2.39795    -2.85230     2.20585
H      1.64644    -0.93820     0.95273
H      1.30974    -2.22685     3.45534
H      0.65551    -2.73579     1.88768
C      2.06897     2.40606    -1.68983
O      0.94671     1.53308    -1.69882
H      2.81300     2.02193    -2.38463
H      0.29249     1.89806    -1.05729
H      1.77769     3.40646    -2.00992
H      2.51135     2.46906    -0.69295
