 42
-810.6622083624553
C     -1.17973     3.24823     0.13705
O     -1.75222     2.66101     1.29783
H     -0.78736     2.48599    -0.53856
H     -1.10752     2.03160     1.64635
H     -1.95818     3.81285    -0.37130
H     -0.37196     3.93046     0.40876
C     -0.72762    -0.79876     2.06995
O     -0.15729     0.27699     1.33850
H     -0.36362    -1.75762     1.69347
H     -0.42497     0.14187     0.39633
H     -0.43544    -0.70406     3.11322
H     -1.81369    -0.77712     1.99465
C      2.96894    -3.14575     0.46616
O      3.23018    -2.02401    -0.36247
H      3.27833    -4.04780    -0.05631
H      3.09122    -1.22312     0.18882
H      3.52201    -3.07466     1.40400
H      1.90256    -3.21895     0.69811
C      2.60889     1.23149    -0.02543
O      2.50038     0.18874     0.93869
H      1.75489     1.22430    -0.70646
H      1.57047     0.18841     1.23824
H      2.66139     2.20535     0.46367
H      3.52136     1.07989    -0.60173
C     -1.89712    -0.79002    -1.62044
O     -0.66441    -0.21563    -1.20562
H     -2.03218    -1.78128    -1.18329
H      0.07022    -0.73473    -1.60784
H     -2.71106    -0.15047    -1.29258
H     -1.93620    -0.87879    -2.70695
C      2.03093    -0.90455    -3.34172
O      1.39109    -1.52813    -2.23988
H      2.72467    -1.59142    -3.82657
H      2.09219    -1.79272    -1.60245
H      1.27644    -0.60343    -4.06718
H      2.58481    -0.01717    -3.02606
C     -4.88823     1.12396     1.63244
O     -3.82189     0.85709     0.74033
H     -5.67905     0.39844     1.44523
H     -3.13899     1.53103     0.88324
H     -4.57429     1.03071     2.67703
H     -5.29771     2.12755     1.48603
