 60
-1158.0912830404911
C      5.06863     0.07390    -0.93824
O      3.78310    -0.20601    -1.46170
H      5.55362    -0.82164    -0.53880
H      3.29013    -0.74373    -0.82958
H      5.68429     0.46967    -1.74506
H      5.02417     0.82441    -0.14303
C      1.28086    -1.74145    -3.28951
O      0.54164    -1.51706    -2.09653
H      0.67872    -1.50365    -4.16751
H      0.25451    -0.57315    -2.08951
H      2.19321    -1.14519    -3.30408
H      1.54844    -2.79622    -3.33486
C      2.55691     2.43296     0.75169
O      1.17875     2.50962     1.04097
H      3.13485     2.06255     1.60469
H      0.83944     1.60899     1.16104
H      2.75747     1.78463    -0.10366
H      2.91800     3.43396     0.51098
C      0.84897     1.94752    -2.32190
O     -0.18166     1.04754    -1.93102
H      0.57397     2.46608    -3.24344
H     -0.83644     1.55988    -1.40598
H      1.03909     2.68809    -1.54758
H      1.77122     1.39689    -2.50008
C      2.05704    -3.18867     0.56855
O      1.86835    -1.85682     0.11104
H      2.54142    -3.79011    -0.20231
H      1.32458    -1.87962    -0.71809
H      2.70846    -3.15660     1.43949
H      1.10524    -3.63988     0.84080
C     -2.21044    -3.61510     2.22398
O     -1.39439    -3.36874     1.09704
H     -2.66958    -2.69536     2.60170
H     -1.64831    -2.50579     0.73533
H     -3.00600    -4.32642     1.98646
H     -1.60222    -4.04112     3.02560
C     -4.39969     1.71181     1.86151
O     -3.02330     1.37766     1.74012
H     -4.48444     2.79379     1.94994
H     -2.95387     0.44058     1.50940
H     -4.96265     1.38531     0.98387
H     -4.83263     1.25631     2.75315
C     -2.67870    -0.82344    -1.05932
O     -2.14087    -0.86981     0.26787
H     -2.85348     0.20480    -1.36842
H     -1.30839    -0.37709     0.31090
H     -2.00465    -1.30318    -1.76388
H     -3.62312    -1.36111    -1.03135
C      0.04931    -0.65701     2.68979
O      0.41158    -0.11970     1.42597
H      0.73455    -0.30554     3.46363
H      1.02427    -0.74921     0.98638
H     -0.95391    -0.31457     2.93948
H      0.05349    -1.74584     2.67750
C     -1.52892     3.82197    -0.38746
O     -1.93646     2.46329    -0.49642
H     -0.73637     3.92127     0.35060
H     -2.28859     2.16759     0.36709
H     -1.15020     4.14402    -1.35682
H     -2.37136     4.46425    -0.12275
