 42
-810.6645113308385
C     -1.53622    -0.12975    -2.18383
O     -0.83861    -1.03993    -1.34622
H     -1.65234     0.84448    -1.70440
H     -0.03723    -0.58976    -1.02572
H     -1.02145     0.00513    -3.13885
H     -2.52530    -0.54247    -2.37752
C     -2.53341    -0.24289     1.52734
O     -1.44172     0.63777     1.74256
H     -3.45424     0.25930     1.82011
H     -0.63477     0.09521     1.87421
H     -2.59366    -0.53097     0.47782
H     -2.43391    -1.14532     2.13085
C      0.34440    -4.54149    -1.76975
O      0.81665    -3.27278    -2.17781
H      0.08504    -4.54928    -0.70640
H      0.12702    -2.61765    -2.00986
H     -0.53402    -4.85555    -2.34078
H      1.14150    -5.26692    -1.92921
C     -1.90933     3.85029     0.80978
O     -1.26699     2.77074     0.16013
H     -1.84208     4.72967     0.17222
H     -1.39683     1.96583     0.71114
H     -2.96400     3.63071     0.98893
H     -1.43853     4.07217     1.77079
C      0.32993    -2.33920     1.58404
O      0.67213    -0.97328     1.80722
H     -0.01491    -2.75663     2.52699
H      1.17069    -0.67317     1.02664
H     -0.46335    -2.43818     0.84159
H      1.19675    -2.90635     1.24546
C      2.57772    -0.33563    -1.42420
O      1.53785     0.06026    -0.53967
H      3.53604     0.05476    -1.08298
H      1.53310     1.05103    -0.43990
H      2.61975    -1.42095    -1.45180
H      2.37561     0.03605    -2.42880
C      1.74691     2.81311     1.33671
O      1.38004     2.59901    -0.02547
H      1.92585     3.87358     1.51271
H      0.42255     2.81062    -0.08353
H      0.96544     2.46422     2.01224
H      2.66642     2.26693     1.54550
