 60
-1158.0957002696018
C      5.71865     1.79975    -1.60533
O      4.39682     1.45636    -1.23003
H      6.18648     1.01899    -2.21060
H      4.09995     0.72348    -1.78949
H      5.72856     2.73035    -2.17864
H      6.32240     1.94114    -0.70741
C      1.43110     3.09678    -1.07587
O      0.56050     1.97153    -1.01150
H      2.35818     2.84733    -0.56784
H     -0.36914     2.28030    -1.05308
H      1.65116     3.35735    -2.11238
H      0.97355     3.95615    -0.58280
C      3.86262    -2.09223    -2.61554
O      3.48164    -0.72911    -2.69384
H      3.38563    -2.58576    -1.76848
H      2.51425    -0.68428    -2.63876
H      3.60128    -2.62383    -3.53310
H      4.94320    -2.13304    -2.48517
C     -0.46177    -0.64696    -2.65645
O      0.80978    -0.39190    -2.07045
H     -0.71957     0.14803    -3.35514
H      0.77836     0.52695    -1.69941
H     -0.41162    -1.59127    -3.19545
H     -1.23409    -0.70724    -1.88875
C      2.60738    -0.83285     0.60314
O      1.65631    -1.80786     0.17544
H      2.24754     0.17917     0.41923
H      1.28895    -1.49733    -0.66867
H      2.76331    -0.96231     1.67308
H      3.55780    -0.96709     0.09385
C     -3.53428    -2.20358     4.37154
O     -3.95658    -1.62791     3.15021
H     -3.43296    -1.45233     5.16000
H     -3.30811    -0.95432     2.91500
H     -4.28350    -2.93023     4.68459
H     -2.57631    -2.71929     4.26438
C     -4.56240     0.17362     0.21627
O     -3.16938     0.28970    -0.03809
H     -4.89742     0.93279     0.92698
H     -2.70836     0.11122     0.80321
H     -5.09601     0.30698    -0.72369
H     -4.80089    -0.81057     0.61634
C     -0.88374     1.10956     2.34056
O     -1.74655    -0.02420     2.25848
H     -0.35376     1.11003     3.29111
H     -1.15807    -0.82627     2.24536
H     -0.16083     1.10430     1.52386
H     -1.48540     2.01470     2.27473
C     -1.04069    -3.24429     1.56481
O     -0.24907    -2.15708     2.03289
H     -0.46686    -4.17031     1.58450
H      0.49676    -2.05527     1.39875
H     -1.90780    -3.35531     2.21105
H     -1.38613    -3.07170     0.54388
C     -2.88510     3.57235    -0.68767
O     -2.07775     2.47812    -1.07578
H     -3.01321     3.60324     0.39741
H     -2.51961     1.66079    -0.75637
H     -2.40487     4.49471    -1.00854
H     -3.87121     3.51387    -1.15084
