 36
-694.8574284083039
C     -0.04546     0.66968    -2.67756
O     -1.27040     0.23976    -2.09500
H      0.41348    -0.17602    -3.19084
H     -1.44494     0.86163    -1.35710
H     -0.22667     1.45885    -3.40848
H      0.64239     1.03621    -1.91362
C      1.49005     2.57096     2.03421
O      1.15989     1.76097     0.91949
H      0.92050     3.49897     1.97963
H      1.61399     0.89296     1.03784
H      1.24688     2.06847     2.97304
H      2.55321     2.81591     2.03300
C      2.82154    -1.15573     0.00637
O      2.23833    -0.64538     1.19932
H      3.38579    -0.35956    -0.47880
H      1.48882    -1.24940     1.40540
H      3.50379    -1.97303     0.23967
H      2.05501    -1.52025    -0.67917
C     -1.97264    -3.03816    -1.28102
O     -0.80253    -2.23814    -1.20309
H     -1.91816    -3.81918    -0.52291
H     -1.02348    -1.35727    -1.58069
H     -2.86882    -2.44141    -1.09963
H     -2.05260    -3.51189    -2.26067
C     -1.59486     3.29217    -0.29870
O     -1.33520     1.92849    -0.03243
H     -2.57298     3.37667    -0.77035
H     -0.43897     1.87285     0.36036
H     -1.60858     3.87542     0.62406
H     -0.84421     3.72110    -0.96714
C     -0.98634    -1.35303     1.96460
O      0.02667    -2.13024     1.34153
H     -0.56445    -0.86167     2.84220
H     -0.24430    -2.24844     0.40609
H     -1.37957    -0.59339     1.28758
H     -1.80639    -1.99065     2.29726
