 36
-694.849210162345
C      0.34136     3.80027    -1.59990
O     -0.29663     3.74080    -0.33799
H      0.75863     4.80009    -1.71232
H     -0.71860     2.88147    -0.25482
H      1.14871     3.06991    -1.68084
H     -0.36615     3.63394    -2.41745
C      2.53725     1.89485     0.76320
O      1.75684     1.04648    -0.06861
H      2.11738     2.89636     0.72959
H      2.02200     0.10811     0.06972
H      2.53242     1.54181     1.79664
H      3.56927     1.93376     0.41223
C      1.67691    -1.92236    -1.29209
O      1.90222    -1.58674     0.07546
H      2.09087    -2.90786    -1.51396
H      1.15047    -1.96698     0.57434
H      0.60950    -1.91599    -1.52158
H      2.17910    -1.18583    -1.91950
C     -0.48324    -3.96739     1.21547
O     -0.36460    -2.55777     1.10310
H     -0.47628    -4.44418     0.23240
H     -1.05817    -2.22298     0.49952
H      0.36285    -4.33734     1.79307
H     -1.40315    -4.24158     1.73510
C     -0.99251     0.73673     1.67085
O     -0.82101     0.89613     0.26437
H     -0.85823     1.69407     2.17606
H      0.15139     0.96458     0.09115
H     -2.00429     0.38230     1.86209
H     -0.28616     0.01202     2.07377
C     -3.38900    -1.14661    -0.90232
O     -1.99609    -1.28421    -0.68897
H     -3.59499    -0.53264    -1.78167
H     -1.62239    -0.39715    -0.50934
H     -3.81002    -2.13740    -1.06297
H     -3.88057    -0.69417    -0.03737
