 36
-694.8508984986855
C     -0.76844     2.48983    -3.07969
O     -0.58751     2.27623    -1.69186
H     -0.10085     3.28780    -3.39864
H     -1.19008     1.55003    -1.42115
H     -0.54060     1.58856    -3.65439
H     -1.79517     2.78861    -3.30120
C      1.77771     0.01243    -1.68546
O      1.69947     1.16805    -0.85154
H      2.39563     0.22222    -2.55886
H      0.96605     1.72024    -1.19651
H      2.23840    -0.80238    -1.12712
H      0.78699    -0.29699    -2.02061
C      2.01012    -2.90200     1.34945
O      2.91506    -1.82677     1.43896
H      1.48027    -2.90700     0.39209
H      2.41868    -1.03550     1.67409
H      2.57498    -3.82981     1.43277
H      1.26604    -2.88637     2.15302
C      0.19989     1.43329     2.03199
O      1.05620     0.39334     1.57253
H     -0.14744     1.17445     3.03056
H      1.39320     0.69735     0.69136
H      0.73828     2.37847     2.08482
H     -0.66295     1.55882     1.37473
C     -3.24214     0.58220    -0.20154
O     -2.06915     0.20414    -0.89888
H     -3.06877     0.62250     0.87621
H     -1.60817    -0.47637    -0.36303
H     -3.55740     1.56908    -0.54076
H     -4.05078    -0.12434    -0.40086
C     -1.68980    -1.88960     1.85192
O     -0.85885    -1.45984     0.78203
H     -1.43715    -2.90733     2.15187
H     -0.08712    -0.99626     1.15822
H     -1.59730    -1.23024     2.71701
H     -2.72720    -1.88400     1.51938
