 36
-694.8541879285286
C     -0.16198     1.30772    -2.82808
O      0.31656     1.80147    -1.58949
H      0.58266     1.52858    -3.59340
H     -0.26655     1.48679    -0.89034
H     -0.32302     0.22609    -2.80750
H     -1.09561     1.79397    -3.12213
C      2.21136     1.88748     1.17980
O      1.64599     0.60070     1.40356
H      3.25294     1.87795     1.49847
H      0.78551     0.72214     1.85367
H      2.16050     2.15180     0.12428
H      1.67598     2.64507     1.75195
C      2.63598    -0.75934    -1.51539
O      1.76632    -1.23583    -0.50283
H      2.69932    -1.51103    -2.30221
H      1.75285    -0.57823     0.22944
H      2.26429     0.17410    -1.93478
H      3.64189    -0.59774    -1.12310
C     -0.97127    -3.14349    -0.31905
O     -0.70348    -1.94693    -1.03079
H     -2.02170    -3.40197    -0.44774
H      0.26249    -1.75488    -0.92711
H     -0.36027    -3.96281    -0.69785
H     -0.76575    -3.02006     0.74761
C     -3.05857     0.48591    -0.66505
O     -1.79260     0.25665    -0.07054
H     -3.42060     1.45746    -0.33682
H     -1.42184    -0.58573    -0.43287
H     -2.97178     0.48907    -1.75109
H     -3.77196    -0.28638    -0.37211
C     -1.24301    -0.16174     3.25800
O     -0.83771     0.86733     2.37024
H     -0.82989     0.04669     4.24206
H     -1.30357     0.72472     1.52627
H     -2.33129    -0.20268     3.33640
H     -0.88087    -1.13745     2.92117
