 48
-926.4813364928029
C      1.52168    -2.28484     2.51581
O      1.70064    -2.19620     1.11448
H      1.91997    -3.22477     2.89878
H      0.98293    -2.70877     0.67260
H      2.05568    -1.46152     2.99253
H      0.46611    -2.21527     2.79038
C      0.29900    -3.43998    -1.61694
O     -0.19246    -3.42569    -0.27803
H      1.38912    -3.43607    -1.59661
H     -1.07637    -2.99458    -0.32677
H     -0.04079    -4.33586    -2.13657
H     -0.04655    -2.55862    -2.16136
C     -2.92415    -1.36126     0.46977
O     -2.40318    -2.01185    -0.68074
H     -3.96982    -1.63446     0.60785
H     -2.12079    -1.30534    -1.30068
H     -2.37074    -1.66539     1.36152
H     -2.85204    -0.27940     0.35997
C      2.26417    -0.06463    -1.37389
O      2.53570     0.05971     0.01509
H      2.77964    -0.92949    -1.79476
H      2.26609    -0.78473     0.44019
H      1.19215    -0.16204    -1.56261
H      2.62663     0.82619    -1.88608
C     -1.02006     3.32901    -1.26574
O     -1.65057     2.22761    -0.61938
H     -0.99193     3.14081    -2.33914
H     -1.31909     2.24049     0.30817
H     -1.57913     4.24702    -1.08535
H      0.00078     3.45568    -0.90381
C     -2.08356     0.38084    -3.37829
O     -1.51199     0.05030    -2.12640
H     -1.35049     0.88709    -4.01034
H     -1.55799     0.85369    -1.55950
H     -2.39441    -0.53425    -3.88171
H     -2.95342     1.02948    -3.26226
C     -0.38405     0.98869     2.34177
O     -0.42093     2.26433     1.72502
H     -0.04291     1.06867     3.37371
H      0.50419     2.48902     1.48582
H     -1.39697     0.58619     2.36049
H      0.26243     0.29003     1.80872
C      3.03870     2.73157     2.01436
O      2.13427     2.50467     0.94838
H      3.05304     1.88939     2.71087
H      2.35168     1.62254     0.57096
H      4.05093     2.88694     1.63876
H      2.73015     3.62636     2.55418
