 36
-694.8555616173625
C     -1.87126     3.12886     0.68436
O     -0.96260     2.28098     0.00644
H     -2.51093     2.56287     1.36677
H     -0.31426     1.95264     0.66600
H     -1.34086     3.88934     1.25991
H     -2.49725     3.62886    -0.05292
C      2.04587     0.22737    -1.42299
O      1.97487    -1.06840    -1.98878
H      2.31152     0.19304    -0.36554
H      1.15378    -1.47958    -1.70043
H      2.82409     0.78043    -1.94920
H      1.10946     0.77724    -1.51979
C      0.46275     1.52010     3.20754
O      0.69249     1.27179     1.83314
H      1.32487     1.21921     3.80661
H      0.78867     0.29924     1.72594
H      0.29917     2.58728     3.35247
H     -0.41673     0.97769     3.56247
C     -1.49771    -2.95630    -0.66482
O     -0.58072    -1.88244    -0.83868
H     -2.51496    -2.57234    -0.59590
H     -1.08980    -1.09034    -1.14536
H     -1.42747    -3.64985    -1.50312
H     -1.25784    -3.48605     0.25730
C     -1.37508     0.70680    -2.93188
O     -1.78701     0.32724    -1.62100
H     -0.95971     1.71497    -2.92159
H     -1.58131     1.07798    -1.02300
H     -0.61039     0.02052    -3.30290
H     -2.22910     0.67848    -3.60768
C      2.06101    -2.03638     1.44627
O      0.82179    -1.34544     1.40635
H      2.58343    -1.96047     0.49354
H      0.34739    -1.60816     0.59294
H      2.67865    -1.58957     2.22574
H      1.90991    -3.08938     1.69332
