 36
-694.8503523673382
C     -0.18855     2.69597    -0.71250
O     -1.12702     1.63167    -0.58249
H      0.54001     2.44771    -1.48242
H     -1.25151     1.45897     0.37690
H     -0.70871     3.60717    -1.00756
H      0.34818     2.86361     0.21829
C      3.44426     1.71389    -0.45410
O      2.43138     1.15144     0.35285
H      3.10216     1.85540    -1.48393
H      2.22270     0.27515    -0.01484
H      3.71920     2.68709    -0.04626
H      4.34042     1.08807    -0.47865
C      1.79624    -2.39224     0.14216
O      1.84192    -1.28014    -0.73925
H      1.49488    -3.29634    -0.39132
H      0.97383    -1.19006    -1.16211
H      2.79623    -2.54173     0.54528
H      1.10014    -2.21951     0.96502
C     -2.80547    -2.31374     1.12217
O     -1.44896    -1.90303     0.99923
H     -2.97847    -3.26523     0.61486
H     -1.26134    -1.71316     0.06789
H     -3.01921    -2.43988     2.18194
H     -3.48616    -1.56137     0.71382
C     -1.44030    -0.88271    -2.81992
O     -0.75100    -0.72920    -1.59105
H     -1.10108    -0.14277    -3.54665
H     -0.88357     0.20677    -1.27559
H     -1.24088    -1.87939    -3.20708
H     -2.51552    -0.76453    -2.66964
C     -0.08608     1.16950     2.72264
O     -1.23294     0.81173     1.95423
H     -0.14715     0.75983     3.73202
H     -1.26591    -0.15266     1.87150
H      0.83177     0.83111     2.24322
H     -0.05802     2.25597     2.79289
