 30
-579.039539905344
C      2.39034    -1.08762    -1.06312
O      2.08175     0.16625    -0.46851
H      3.03303    -1.69231    -0.41783
H      1.63786     0.01061     0.37311
H      1.49153    -1.66096    -1.29798
H      2.92665    -0.88756    -1.99054
C     -1.95530    -2.61078     0.36661
O     -0.73667    -2.03550    -0.08721
H     -1.77412    -3.33420     1.16372
H     -0.32240    -1.57545     0.66045
H     -2.64447    -1.84570     0.73323
H     -2.41562    -3.12712    -0.47372
C      0.55867    -0.02384     3.18859
O      0.23840    -0.19684     1.82002
H      1.11456    -0.89707     3.52158
H     -0.19857     0.62728     1.48388
H      1.17593     0.86521     3.33557
H     -0.34784     0.07262     3.78838
C      0.10440     2.89225     0.17508
O     -0.78510     1.84872     0.55489
H      0.95598     2.50191    -0.38161
H     -1.06870     1.39143    -0.26983
H     -0.41384     3.63263    -0.43595
H      0.46296     3.38460     1.07709
C     -0.50306     0.56741    -2.71198
O     -1.29692     0.30827    -1.55934
H     -0.69531    -0.17032    -3.49307
H     -1.12335    -0.59701    -1.24934
H     -0.78090     1.54732    -3.09726
H      0.55693     0.56738    -2.46132
