 24
-463.2290589220357
C      2.68595     0.52922    -0.85221
O      1.84197     0.67073     0.27835
H      2.12493     0.20794    -1.73412
H      1.51749    -0.22265     0.51405
H      3.14360     1.49371    -1.05891
H      3.47813    -0.19613    -0.66111
C     -0.96783     2.57672     0.80940
O     -0.53929     1.79153    -0.29129
H     -0.92434     2.00884     1.74235
H      0.39496     1.54605    -0.12112
H     -0.35152     3.47010     0.91307
H     -1.99637     2.88540     0.63124
C     -3.05735    -0.59088    -0.06989
O     -1.67702    -0.63945    -0.38404
H     -3.48801    -1.57378    -0.24867
H     -1.35714     0.28569    -0.44424
H     -3.21452    -0.32019     0.97705
H     -3.57668     0.13530    -0.69946
C      1.06224    -2.92021     0.05500
O      0.62390    -1.70581     0.63975
H      2.07884    -3.11167     0.39387
H     -0.26359    -1.49053     0.29348
H      0.42939    -3.75444     0.36326
H      1.05668    -2.85471    -1.03571
