 36
-694.8479570479643
C     -0.35072     2.93218    -3.70889
O     -0.19544     1.68751    -3.05494
H      0.38517     2.99342    -4.51017
H     -0.65203     1.73558    -2.19893
H     -1.34775     3.03783    -4.14703
H     -0.18477     3.77144    -3.02656
C      2.19256     1.74178    -0.24304
O      1.23100     0.95478     0.44865
H      2.09793     2.76817     0.10266
H      1.16739     0.08390    -0.01400
H      3.20027     1.38857    -0.02593
H      2.02008     1.70809    -1.31839
C      0.16820    -1.36953    -1.92490
O      0.74751    -1.41532    -0.62228
H      0.03619    -2.37744    -2.31899
H      0.16477    -1.93466    -0.03223
H     -0.79505    -0.85998    -1.90784
H      0.83753    -0.82248    -2.58378
C      1.34076    -0.92434     3.33717
O      0.17448    -0.40010     2.70812
H      1.88770    -1.59351     2.66906
H      0.46734     0.26888     2.06741
H      2.00815    -0.12118     3.65186
H      1.02761    -1.48173     4.21916
C     -2.18843     0.91350     0.00002
O     -1.23502     1.83758    -0.50310
H     -3.12309     1.06378    -0.53749
H     -0.40590     1.69029    -0.02288
H     -1.85610    -0.11502    -0.14341
H     -2.36898     1.08082     1.06330
C     -1.07728    -3.64674     2.02294
O     -0.87777    -2.45289     1.28389
H     -0.12995    -4.15704     2.21449
H     -0.64318    -1.74062     1.91045
H     -1.56361    -3.43801     2.97815
H     -1.72014    -4.30592     1.44346
