 54
-1042.2910699953493
C      0.88324     1.49507    -1.04273
O     -0.48934     1.18288    -0.84063
H      1.40062     0.61143    -1.40948
H     -0.91948     1.92720    -0.35623
H      0.98375     2.28351    -1.79035
H      1.35627     1.82694    -0.11973
C     -2.27317    -0.05923     1.88675
O     -1.40386     0.92795     2.41701
H     -2.22132    -0.97959     2.47339
H     -0.49169     0.60667     2.29783
H     -3.29233     0.31684     1.93901
H     -2.03711    -0.29171     0.84715
C     -3.03950    -0.19540    -2.38257
O     -1.81130    -0.76679    -1.97211
H     -3.59939     0.16640    -1.51736
H     -1.27785    -0.04637    -1.56033
H     -2.87981     0.63761    -3.06964
H     -3.63299    -0.95896    -2.88587
C      3.06825    -2.77130    -2.95467
O      2.03688    -1.92909    -2.47740
H      3.23317    -2.61803    -4.02247
H      1.19752    -2.18428    -2.92124
H      3.98756    -2.53008    -2.42386
H      2.83115    -3.82554    -2.78564
C      0.50261    -2.51425     0.31724
O      1.55921    -1.58092     0.11327
H     -0.42311    -2.17774    -0.15251
H      1.81550    -1.65145    -0.83432
H      0.76987    -3.48797    -0.09197
H      0.33040    -2.62704     1.38793
C     -0.98099    -3.79155    -3.21894
O     -0.39470    -2.51432    -3.37351
H     -1.06698    -4.06145    -2.16258
H     -0.96877    -1.86848    -2.90589
H     -1.97651    -3.82457    -3.66551
H     -0.35296    -4.52770    -3.71924
C      0.92811     3.19781     3.62176
O      1.58117     2.85837     2.41722
H      0.81331     4.28154     3.65473
H      1.44503     1.91586     2.25508
H     -0.06562     2.75120     3.69875
H      1.51561     2.90018     4.49530
C      1.72171    -0.50989     3.19432
O      1.15528     0.14560     2.06864
H      0.95502    -1.07447     3.73154
H      1.34586    -0.39518     1.26593
H      2.50791    -1.19274     2.87942
H      2.14527     0.23492     3.86556
C     -1.02191     4.25069     1.00791
O     -1.63050     3.00581     0.68828
H      0.06280     4.17339     1.01809
H     -1.61751     2.42124     1.47040
H     -1.33279     4.97654     0.25977
H     -1.35860     4.60457     1.98415
