 42
-810.6668906275177
C     -2.71680    -1.43176     1.54398
O     -2.74740    -1.59610     0.13217
H     -2.03321    -0.62863     1.82353
H     -2.66325    -0.69114    -0.24207
H     -3.71281    -1.20146     1.92531
H     -2.37880    -2.36094     2.00180
C      1.72451    -0.63670     2.41996
O      1.84893     0.15476     1.24888
H      1.79746     0.01676     3.28611
H      1.78824    -0.46490     0.47358
H      0.76048    -1.15006     2.43887
H      2.52025    -1.37925     2.46375
C     -0.97070    -3.55739    -1.92170
O     -0.62128    -3.00817    -0.66011
H     -0.41472    -4.48009    -2.07151
H     -1.42238    -2.54553    -0.32907
H     -2.03770    -3.77392    -1.97035
H     -0.72502    -2.86197    -2.72824
C      4.07214     1.65015    -1.02354
O      3.05486     2.27692    -0.26503
H      3.68511     0.79788    -1.58734
H      2.76522     1.64828     0.40697
H      4.46702     2.38134    -1.72816
H      4.89230     1.30170    -0.38996
C     -3.38604     1.79643    -0.23453
O     -2.30321     0.94013    -0.55032
H     -3.35906     2.09489     0.81495
H     -1.55269     1.22712     0.01157
H     -3.36006     2.69432    -0.85575
H     -4.32341     1.27437    -0.42489
C     -0.05353     3.12562     0.82624
O     -0.35853     1.75605     1.07814
H     -0.96877     3.62610     0.50777
H      0.48012     1.26936     1.18334
H      0.30998     3.60990     1.73360
H      0.69363     3.22700     0.03990
C      1.01057    -0.44433    -1.87829
O      1.46073    -1.33824    -0.85910
H     -0.06966    -0.31027    -1.83765
H      0.76291    -2.02433    -0.75455
H      1.49372     0.52234    -1.74634
H      1.28328    -0.83417    -2.85903
