 42
-810.6607799539137
C     -1.83457     2.37516    -0.79092
O     -2.15549     0.99582    -0.62491
H     -2.08771     2.65264    -1.81420
H     -1.78995     0.67555     0.21343
H     -2.42777     2.99340    -0.11469
H     -0.77441     2.54814    -0.62295
C     -2.29486    -1.43640     1.98061
O     -1.14652    -0.79125     1.45707
H     -2.08030    -2.47976     2.21189
H     -0.76042    -1.38589     0.75643
H     -2.59677    -0.92221     2.89146
H     -3.11439    -1.39925     1.26036
C      1.28110     1.50725    -2.29009
O      1.42980     1.90760    -0.93937
H      0.86988     0.50102    -2.37110
H      1.94989     1.23924    -0.47165
H      0.58624     2.19027    -2.78053
H      2.22994     1.54850    -2.83135
C     -2.46303    -1.39392    -3.01192
O     -1.32438    -0.76534    -2.44838
H     -3.07251    -1.87474    -2.24179
H     -1.63906    -0.02325    -1.88739
H     -3.08254    -0.67046    -3.54373
H     -2.12563    -2.15046    -3.71749
C      1.17332    -2.51436    -0.59396
O     -0.22411    -2.25746    -0.46333
H      1.61259    -2.57484     0.39996
H     -0.53724    -1.81596    -1.28082
H      1.32939    -3.46489    -1.10469
H      1.67485    -1.71529    -1.13878
C      3.94321     0.42801     1.36630
O      2.71463     0.00583     0.80232
H      4.03062     1.51771     1.34520
H      2.05076     0.01929     1.52096
H      4.04028     0.09670     2.40190
H      4.75970    -0.00019     0.78775
C      0.62486     1.72964     2.77659
O      0.88862     0.33241     2.76101
H      1.39022     2.21639     3.37810
H      0.08168    -0.10926     2.43305
H      0.64960     2.14523     1.76655
H     -0.34956     1.94049     3.22227
