 42
-810.6622279865816
C     -2.39964    -1.09898     2.22931
O     -1.86592     0.21445     2.13118
H     -1.80694    -1.81896     1.66329
H     -1.89174     0.50970     1.21539
H     -2.38073    -1.38501     3.28112
H     -3.43640    -1.14333     1.88304
C      1.30249    -1.01306     2.50246
O      1.35994    -0.64958     1.12995
H      2.10332    -0.49940     3.03027
H      0.70884    -1.21395     0.64230
H      0.34334    -0.73075     2.93101
H      1.45023    -2.08664     2.62030
C      0.61715     2.59878     1.97186
O      0.77662     1.95864     0.71272
H      0.19246     3.58743     1.80521
H      1.10729     1.05184     0.88037
H     -0.04850     2.03193     2.62279
H      1.58213     2.72602     2.46517
C      3.11678     0.69530    -1.67838
O      2.86880    -0.66854    -1.38890
H      2.20941     1.29931    -1.59829
H      2.53936    -0.72473    -0.48413
H      3.87193     1.11697    -1.00941
H      3.48704     0.76100    -2.70111
C     -0.51480    -0.34683    -3.12683
O     -1.41650    -0.63289    -2.06325
H      0.52156    -0.34180    -2.78402
H     -1.55024     0.19674    -1.56908
H     -0.63039    -1.11532    -3.88810
H     -0.74206     0.62039    -3.57659
C      0.52398    -3.21540    -1.00071
O     -0.19416    -2.20960    -0.29351
H      1.28288    -2.77786    -1.64809
H     -0.73714    -1.71303    -0.94807
H      1.00831    -3.87001    -0.27873
H     -0.15703    -3.81397    -1.60568
C     -2.27600     2.76540    -0.57427
O     -1.49818     1.58216    -0.53886
H     -1.90580     3.44867    -1.33987
H     -0.61179     1.79870    -0.16105
H     -3.30274     2.49131    -0.80386
H     -2.25489     3.27070     0.39207
