 48
-926.4756830172403
C     -1.59702    -4.01235     0.34561
O     -1.01172    -2.72467     0.38931
H     -2.66144    -3.96612     0.58396
H     -1.44255    -2.18225    -0.31010
H     -1.48263    -4.46736    -0.64138
H     -1.10574    -4.64398     1.08414
C     -0.42081     1.83079    -2.28371
O      0.10556     0.51025    -2.15972
H      0.26281     2.47246    -2.84433
H      0.85494     0.51784    -1.54507
H     -1.35783     1.77091    -2.83650
H     -0.62588     2.26919    -1.30841
C     -3.00886    -0.38881    -1.36976
O     -1.87460    -1.20829    -1.61505
H     -3.51767    -0.16046    -2.30832
H     -1.13908    -0.61915    -1.88272
H     -3.70395    -0.93774    -0.73434
H     -2.73355     0.54136    -0.87420
C      1.46768    -3.01615    -1.67564
O      1.54715    -2.54604    -0.33172
H      0.47891    -2.83193    -2.09473
H      0.65008    -2.66075     0.05475
H      2.20779    -2.48976    -2.28029
H      1.68299    -4.08463    -1.71616
C     -0.60627     0.01203     3.12514
O     -0.40148     1.34863     2.70128
H      0.25601    -0.35617     3.68454
H      0.52615     1.41295     2.39182
H     -1.47777    -0.01496     3.77588
H     -0.77804    -0.64689     2.27161
C      3.66745    -0.07789    -1.03564
O      2.38993    -0.09471    -0.41987
H      4.17908    -1.02738    -0.88903
H      2.11174    -1.04056    -0.31065
H      3.56175     0.10994    -2.10624
H      4.26826     0.71518    -0.59426
C      1.97496     2.81611     0.87284
O      2.01671     1.58725     1.58758
H      0.94330     3.13736     0.71974
H      2.19452     0.89289     0.92549
H      2.49457     3.58240     1.44638
H      2.45652     2.71976    -0.10289
C     -2.63888     3.64550     1.42184
O     -1.89876     2.61998     0.78916
H     -3.09394     4.26861     0.65126
H     -1.41850     2.13626     1.48352
H     -3.43415     3.23876     2.05356
H     -2.00143     4.28162     2.04296
