 36
-694.8543879182192
C     -1.28972     2.63442     0.89195
O     -0.56290     1.53394     0.37494
H     -0.60983     3.36402     1.33377
H     -0.09120     1.07757     1.12279
H     -1.82954     3.10843     0.07440
H     -2.00657     2.30939     1.64671
C      2.50583     2.43579    -0.98097
O      1.34737     2.00040    -1.65928
H      2.34822     3.39730    -0.48351
H      0.66188     1.86457    -0.99359
H      2.83027     1.71538    -0.22479
H      3.30579     2.55416    -1.70907
C     -0.18146    -0.33139     3.31702
O      0.62264     0.20538     2.27657
H     -1.10258    -0.76170     2.91428
H      0.96666    -0.56681     1.76314
H      0.35770    -1.10926     3.85713
H     -0.43497     0.46510     4.01321
C     -1.86864    -3.12148    -0.09955
O     -0.84935    -2.47331    -0.83961
H     -2.07535    -2.58867     0.83363
H     -1.22745    -1.62956    -1.17161
H     -2.79313    -3.17860    -0.67572
H     -1.54311    -4.13271     0.13670
C     -1.47465     0.44340    -2.75978
O     -1.77245    -0.05242    -1.46117
H     -0.39885     0.52608    -2.91948
H     -1.37656     0.55149    -0.80646
H     -1.89284    -0.24593    -3.49108
H     -1.92716     1.42563    -2.90946
C      2.26121    -1.34220    -0.29964
O      1.25832    -1.73949     0.62730
H      1.91050    -0.54723    -0.95981
H      0.48854    -2.06667     0.10732
H      3.12332    -0.98448     0.26257
H      2.57953    -2.19048    -0.90520
