 60
-1158.083288450772
C      2.71509    -0.64156     3.22338
O      1.90704    -0.18269     2.15733
H      3.67361    -0.96083     2.81435
H      1.01340    -0.03755     2.49193
H      2.90059     0.14815     3.95778
H      2.26489    -1.49305     3.74464
C      1.63597     1.35009    -4.10654
O      2.00964     0.99370    -2.78047
H      0.55502     1.27819    -4.24786
H      1.87731     1.78988    -2.21410
H      1.95283     2.36618    -4.34232
H      2.12935     0.66727    -4.79570
C      1.52802    -1.93992    -1.17195
O      0.65718    -1.04658    -1.87262
H      1.95790    -1.44031    -0.30355
H      1.22338    -0.31012    -2.22786
H      0.95878    -2.80753    -0.84789
H      2.33021    -2.27160    -1.82949
C     -0.97893    -1.33677    -5.04416
O     -1.40446    -0.75244    -3.82862
H      0.08051    -1.14430    -5.23624
H     -0.75616    -0.98183    -3.14904
H     -1.13561    -2.41923    -5.05167
H     -1.55799    -0.89995    -5.85789
C     -1.84278     2.58746    -2.07898
O     -1.20153     2.59147    -0.80645
H     -1.58051     1.69916    -2.65685
H     -1.26591     1.68965    -0.45303
H     -2.92717     2.63732    -1.96402
H     -1.52650     3.47548    -2.62597
C      0.11846    -3.33813     2.05557
O     -0.73162    -3.50258     0.91696
H      0.83608    -2.55749     1.82551
H     -1.34442    -4.21951     1.09084
H     -0.44493    -3.03615     2.93648
H      0.67187    -4.25388     2.27870
C     -1.22585     1.71517     2.60196
O     -1.00576     0.31624     2.48282
H     -2.26260     1.96352     2.37074
H     -1.09499     0.07758     1.53538
H     -1.01782     2.00058     3.63198
H     -0.56919     2.28784     1.94578
C      2.04575     3.07577     0.04361
O      1.41401     3.09352    -1.22968
H      1.95571     2.09711     0.52039
H      0.44942     3.02445    -1.07152
H      3.09803     3.31766    -0.08627
H      1.59928     3.82182     0.70369
C     -0.96874    -0.80771     5.73566
O     -1.61886    -1.42479     4.64843
H     -1.13408    -1.41274     6.62578
H     -1.49662    -0.85928     3.87825
H      0.10969    -0.72749     5.57080
H     -1.35806     0.19637     5.92787
C     -2.44328    -0.83870    -0.50779
O     -1.23219    -0.16396    -0.15577
H     -2.80599    -0.50166    -1.47763
H     -0.51969    -0.50207    -0.74137
H     -2.28086    -1.91315    -0.53062
H     -3.18344    -0.61057     0.25822
