 60
-1158.0967289927567
C      0.27718     4.57721    -1.96932
O     -0.60994     4.21200    -0.93167
H      0.21385     5.65404    -2.11456
H     -0.63649     3.23601    -0.90980
H      1.31206     4.31774    -1.72555
H      0.01450     4.08851    -2.91265
C      0.96703     1.39678    -0.13794
O     -0.33562     1.55280    -0.69245
H      1.31716     2.33093     0.29434
H     -0.96699     1.06851    -0.13069
H      0.98585     0.63324     0.63482
H      1.65679     1.09982    -0.92442
C      3.40882    -2.51288    -1.28204
O      2.72705    -1.32424    -0.89904
H      3.27833    -2.67337    -2.35352
H      2.28055    -1.50637    -0.05360
H      4.47655    -2.42385    -1.07217
H      3.00403    -3.37666    -0.75263
C     -1.14903    -4.36272     0.12316
O     -0.93629    -2.97209     0.28233
H     -0.46194    -4.78173    -0.61639
H     -1.16162    -2.53959    -0.57957
H     -0.98498    -4.86119     1.07864
H     -2.17144    -4.56461    -0.19691
C     -3.07933    -0.39909     1.30680
O     -1.88610     0.34727     1.13025
H     -3.55013    -0.15825     2.26125
H     -1.30252     0.17203     1.89683
H     -3.77594    -0.13795     0.51086
H     -2.87769    -1.46864     1.26324
C      1.87873    -3.30870     1.90968
O      1.31968    -2.14743     1.31631
H      1.57920    -4.20044     1.35987
H      0.44327    -2.42378     0.94605
H      2.96630    -3.23780     1.89742
H      1.54372    -3.40010     2.94392
C      1.04724     0.37603    -3.49427
O      0.94123    -0.88727    -2.86490
H      0.52844     1.14446    -2.92174
H      1.62240    -0.95432    -2.16253
H      2.09448     0.66776    -3.61080
H      0.60564     0.30592    -4.48712
C     -2.39134    -0.87631    -2.25695
O     -1.39147    -1.86058    -2.05912
H     -3.36248    -1.32689    -2.05830
H     -0.54992    -1.51610    -2.43335
H     -2.25477    -0.02060    -1.59749
H     -2.39294    -0.52009    -3.28682
C      0.61065     0.90408     3.63087
O     -0.05771    -0.18680     3.00221
H      1.57404     0.59429     4.03967
H      0.59272    -0.78117     2.59958
H      0.76371     1.73398     2.93863
H     -0.01424     1.24528     4.45338
C     -1.14394     3.78595     2.44436
O      0.07730     4.18839     1.85463
H     -0.97503     3.65286     3.51390
H     -0.11978     4.42353     0.93788
H     -1.92373     4.54280     2.32519
H     -1.50350     2.84393     2.02819
