 60
-1158.0950204075518
C      0.42019    -2.20538    -2.88398
O     -0.89759    -1.86095    -2.45573
H      0.53335    -1.91617    -3.92603
H     -0.97780    -2.10991    -1.50973
H      1.17831    -1.68529    -2.29931
H      0.57753    -3.28245    -2.80849
C      2.19173     1.42658    -3.14766
O      1.27558     0.81182    -4.02826
H      1.86545     2.42540    -2.83530
H      0.38645     0.92065    -3.67829
H      2.35109     0.81893    -2.25509
H      3.14059     1.53888    -3.67042
C      0.43317     2.72657     0.09279
O     -0.72866     2.41276     0.85922
H      0.24152     3.57232    -0.56734
H     -1.45513     2.19183     0.22520
H      1.23675     3.00274     0.77672
H      0.75906     1.87196    -0.49778
C     -3.33792     0.55503    -0.48752
O     -2.58396     1.68184    -0.91547
H     -4.30942     0.52591    -0.98261
H     -2.16173     1.40790    -1.75583
H     -2.80843    -0.37680    -0.68877
H     -3.50880     0.63106     0.58718
C      3.06575     1.88876     3.98107
O      2.33914     0.67242     3.94705
H      2.71997     2.54668     4.78259
H      1.44159     0.86602     3.64816
H      4.11584     1.65649     4.15358
H      2.98208     2.42748     3.03161
C     -1.25042    -3.96058     0.27620
O     -1.16013    -2.55922     0.08956
H     -0.25968    -4.40844     0.38791
H     -0.68166    -2.21074     0.86763
H     -1.84396    -4.19967     1.16032
H     -1.73377    -4.40611    -0.59294
C     -2.50030     0.53290    -4.14335
O     -1.54071     0.57322    -3.09905
H     -3.09010    -0.38191    -4.08405
H     -1.32319    -0.36886    -2.87180
H     -3.16775     1.38778    -4.04761
H     -2.00482     0.57728    -5.11356
C      1.03013    -2.28743     2.99572
O      0.21912    -1.56531     2.07183
H      0.51099    -2.39933     3.94765
H      0.06179    -0.66812     2.43558
H      1.22093    -3.27467     2.57863
H      1.97414    -1.77516     3.16223
C      3.09644    -0.37818     0.62603
O      1.87908    -0.37336    -0.09702
H      3.39040    -1.38752     0.92517
H      1.21740    -0.88758     0.37867
H      3.87816     0.00943    -0.02608
H      3.04164     0.24653     1.51647
C     -1.44597     0.98582     3.73130
O     -0.29059     0.91035     2.91040
H     -1.69141     2.02346     3.94798
H     -0.44736     1.51147     2.12528
H     -2.29395     0.51972     3.22719
H     -1.24946     0.46061     4.66466
