 36
-694.8443715657605
C     -0.35924     0.67970     2.19269
O      0.18756    -0.27185     1.28486
H     -0.74526     0.17344     3.07678
H     -0.56130    -0.76602     0.87711
H      0.44038     1.34926     2.50362
H     -1.15589     1.25381     1.72391
C      2.48000    -0.23821    -1.16497
O      1.34373     0.58369    -0.95977
H      3.24107    -0.03193    -0.41205
H      0.99830     0.38309    -0.06349
H      2.22313    -1.29982    -1.12036
H      2.89987    -0.01720    -2.14538
C      3.73950    -1.63324     2.15823
O      2.44759    -1.78766     2.70274
H      4.03650    -0.58063     2.10963
H      1.81744    -1.32428     2.14578
H      4.44037    -2.15602     2.80525
H      3.81484    -2.06735     1.15571
C     -0.78133    -0.15831    -3.70193
O     -0.91035     0.25381    -2.35105
H     -0.54394     0.69108    -4.34471
H     -0.01160     0.40652    -1.98349
H      0.00313    -0.91052    -3.80504
H     -1.72692    -0.59027    -4.01970
C     -3.15094    -1.09202     0.42921
O     -1.82906    -1.34656    -0.04823
H     -3.21688    -1.48497     1.44128
H     -1.74394    -0.98364    -0.94151
H     -3.35819    -0.02320     0.44258
H     -3.88818    -1.60287    -0.19099
C     -1.26251     3.10929    -0.40112
O     -2.16777     2.02141    -0.50064
H     -1.24963     3.70609    -1.31611
H     -1.86871     1.45967    -1.22630
H     -1.58992     3.74717     0.42021
H     -0.24398     2.77336    -0.19033
