 24
-463.2293450520855
C      1.39614     1.55022     2.23434
O      1.56701     0.74688     1.07545
H      1.84911     2.53246     2.09447
H      1.12661     1.20951     0.33244
H      0.33823     1.68190     2.47493
H      1.88964     1.05379     3.06754
C      0.47672     1.53200    -2.20873
O     -0.01910     1.71633    -0.89420
H      1.19951     2.31692    -2.41658
H     -0.77476     1.10497    -0.78183
H      0.96770     0.56049    -2.31827
H     -0.32846     1.59543    -2.94231
C      0.73195    -2.54493     0.54363
O      0.02170    -1.45417     1.10220
H      0.04014    -3.37503     0.41272
H      0.66329    -0.72015     1.21810
H      1.15874    -2.28404    -0.42887
H      1.53789    -2.86567     1.20425
C     -2.32869    -1.19464    -1.44820
O     -1.78329    -0.29395    -0.50292
H     -3.04904    -0.65471    -2.05871
H     -1.23744    -0.81016     0.12815
H     -1.55262    -1.60646    -2.09880
H     -2.84268    -2.02166    -0.95352
