 42
-810.6683077907735
C     -1.33906     1.70660     1.09275
O     -1.86012     0.63591     1.87190
H     -0.75250     1.34787     0.24453
H     -2.21547    -0.02255     1.23459
H     -2.15258     2.33233     0.72282
H     -0.70413     2.32253     1.72934
C     -0.19683    -1.61639     3.84144
O      0.21369    -0.46107     3.12875
H     -0.97366    -2.15771     3.30049
H     -0.59887    -0.02452     2.77924
H      0.66131    -2.27535     3.97300
H     -0.57986    -1.34514     4.82561
C      0.94688     1.39036    -3.85338
O      0.57658     0.44262    -2.87440
H      0.70264     2.40776    -3.53563
H      1.12068     0.62815    -2.07559
H      2.01676     1.34050    -4.06113
H      0.41100     1.17443    -4.77633
C      3.12519     1.75117    -0.61154
O      1.95503     0.96615    -0.72876
H      2.95450     2.71746    -1.08406
H      1.97703     0.30389    -0.00313
H      3.37439     1.92082     0.43576
H      3.97387     1.26382    -1.09840
C     -1.52406    -2.22946     0.14868
O     -2.46861    -1.17948    -0.00035
H     -1.32392    -2.71466    -0.80650
H     -2.33947    -0.81701    -0.90460
H     -0.57974    -1.86586     0.55964
H     -1.93971    -2.97383     0.82766
C      3.18111    -1.29371     1.77751
O      1.99088    -0.78374     1.20738
H      3.93190    -1.40313     0.99612
H      1.34255    -0.65740     1.93925
H      3.56753    -0.62408     2.54908
H      3.00507    -2.27378     2.22429
C     -2.64977     1.07932    -2.62153
O     -1.95606    -0.13262    -2.39005
H     -3.65885     0.98620    -2.22264
H     -1.01079     0.02972    -2.60266
H     -2.15758     1.92348    -2.13119
H     -2.72086     1.28857    -3.68923
