 54
-1042.2887037079222
C      2.30504     0.48286    -0.55343
O      1.97452    -0.90389    -0.53602
H      1.51042     1.10194    -0.14106
H      1.13787    -1.01613    -1.02572
H      3.19944     0.63058     0.04951
H      2.52059     0.81589    -1.56779
C     -1.73335     1.61314    -3.78935
O     -0.59280     1.27106    -3.01694
H     -2.57067     1.90728    -3.15254
H     -0.38919     2.03459    -2.42800
H     -1.50380     2.43741    -4.46502
H     -2.02834     0.74975    -4.38543
C     -2.63736    -3.06337    -0.49733
O     -1.46434    -2.59693     0.14265
H     -3.20112    -2.25131    -0.96927
H     -1.00887    -1.99403    -0.46608
H     -2.41313    -3.80699    -1.26727
H     -3.28008    -3.53632     0.24473
C      2.63431     1.58051     2.98877
O      1.40988     2.20865     2.65402
H      2.65582     0.53439     2.67303
H      0.71582     1.54577     2.74223
H      3.44348     2.10786     2.48101
H      2.82086     1.62162     4.06464
C     -1.24211    -0.85025     3.11482
O     -0.16350    -0.18567     2.46788
H     -1.54246    -1.72889     2.54812
H      0.56188    -0.84381     2.31782
H     -0.95575    -1.14272     4.12482
H     -2.08808    -0.16716     3.18014
C     -2.40491     0.70384     0.08905
O     -1.20063     1.31633     0.51315
H     -2.56829    -0.24538     0.59206
H     -0.77415     0.75333     1.18727
H     -3.24756     1.35901     0.30522
H     -2.38584     0.51684    -0.98313
C      0.77150     3.98639    -0.66318
O     -0.26227     3.14963    -1.17301
H      1.61384     3.98000    -1.35608
H     -0.60447     2.59703    -0.43922
H      0.40823     5.01010    -0.57305
H      1.11047     3.63757     0.31234
C      1.46392    -3.29949     1.80778
O      1.71949    -1.90164     1.87762
H      1.92970    -3.73294     0.92247
H      1.93237    -1.58893     0.96719
H      1.88253    -3.77472     2.69283
H      0.39333    -3.49684     1.76493
C     -0.21226    -2.02945    -2.99352
O     -0.33091    -1.10235    -1.92374
H     -1.00840    -1.87370    -3.72174
H     -0.45923    -0.20005    -2.31927
H      0.75152    -1.92194    -3.49421
H     -0.29242    -3.04077    -2.59981
