 60
-1158.091509783672
C     -4.95197    -3.02584    -0.70768
O     -4.40384    -1.72192    -0.66651
H     -6.02770    -2.94873    -0.56550
H     -3.45631    -1.79890    -0.85834
H     -4.76140    -3.50663    -1.67066
H     -4.53732    -3.65878     0.08199
C     -1.19406     1.28896    -0.16038
O     -0.36707     0.12158    -0.00396
H     -2.13387     1.11496     0.35170
H      0.47414     0.28943    -0.50132
H     -0.71374     2.16000     0.27545
H     -1.37754     1.47968    -1.21374
C      2.18987     4.18111    -0.00482
O      1.80413     2.92548     0.53752
H      2.18270     4.91195     0.80274
H      1.86552     2.24055    -0.14227
H      3.19726     4.14604    -0.42990
H      1.49182     4.51735    -0.77781
C     -2.88956     0.38142    -3.46024
O     -1.59359    -0.18341    -3.30954
H     -2.78025     1.45245    -3.63896
H     -1.65594    -0.92414    -2.69764
H     -3.41047    -0.05596    -4.31488
H     -3.50140     0.24490    -2.56518
C      3.98048     1.20755     2.74735
O      3.42793     0.05358     2.13706
H      5.05776     1.20610     2.58525
H      2.45747     0.06190     2.29116
H      3.55391     2.11679     2.32410
H      3.80137     1.19840     3.82382
C     -0.78218    -3.07387    -0.98355
O     -1.67172    -1.97133    -0.98130
H     -0.29634    -3.18852    -0.01444
H     -1.21692    -1.22429    -0.53165
H     -1.35251    -3.97407    -1.19863
H     -0.01711    -2.94174    -1.75109
C     -3.03694    -0.86762     2.40583
O     -3.85704    -0.04362     1.60417
H     -3.47057    -1.85862     2.56072
H     -4.21741    -0.58111     0.88832
H     -2.03847    -0.99683     1.98215
H     -2.93387    -0.39112     3.37967
C      4.04000    -1.89738    -0.48503
O      3.92677    -0.48290    -0.39740
H      4.73046    -2.27262     0.26818
H      3.84854    -0.26314     0.56474
H      3.06947    -2.37754    -0.33495
H      4.41937    -2.15621    -1.47096
C      0.26446     1.34506     3.09163
O      0.78940     0.16288     2.50117
H      0.43575     1.29513     4.16446
H      0.30422     0.01744     1.67383
H      0.75325     2.23055     2.68964
H     -0.80888     1.42759     2.92153
C      1.73784     0.67378    -2.75131
O      1.81078     0.67023    -1.32666
H      2.45877     1.38280    -3.15551
H      2.65591     0.20741    -1.06634
H      1.95326    -0.31963    -3.14409
H      0.73546     0.96107    -3.05512
