 60
-1158.1045645315055
C      3.25740    -0.65079    -2.45679
O      3.52385    -1.70811    -1.55521
H      3.43606    -0.96375    -3.48533
H      2.78946    -2.35278    -1.66537
H      2.22512    -0.30846    -2.36893
H      3.92157     0.18416    -2.23353
C     -1.36882     4.68928    -1.17082
O     -1.04638     3.69040    -0.22147
H     -2.31596     4.47744    -1.67668
H     -1.20125     2.81691    -0.62071
H     -1.46725     5.64126    -0.64867
H     -0.58773     4.79181    -1.93122
C      0.55452    -3.15095    -2.89612
O      1.32307    -3.15417    -1.71043
H      1.17080    -3.50428    -3.72126
H      0.70860    -3.00687    -0.95613
H     -0.31562    -3.80374    -2.81209
H      0.20864    -2.14196    -3.12972
C      0.15300    -2.36511     1.49301
O     -0.40135    -2.71822     0.22768
H      0.00595    -1.30616     1.70617
H     -1.34160    -2.44330     0.24254
H     -0.31367    -2.95392     2.28428
H      1.22081    -2.57330     1.48980
C      4.61968    -0.74540     1.56286
O      3.34503    -0.98405     0.99368
H      5.20233    -0.05148     0.95195
H      3.47643    -1.27182     0.06055
H      4.48718    -0.31221     2.55327
H      5.17944    -1.67581     1.66447
C     -3.63669    -1.89193    -0.94246
O     -2.91938    -1.85112     0.27847
H     -4.71294    -1.87871    -0.76719
H     -3.06607    -0.98351     0.69453
H     -3.36846    -1.04871    -1.58104
H     -3.38440    -2.81671    -1.46060
C     -0.69573     0.21151    -1.44543
O     -1.68671     1.20860    -1.25522
H     -0.22081     0.40945    -2.40495
H     -2.29884     0.91884    -0.56130
H      0.06671     0.22049    -0.66710
H     -1.13051    -0.78602    -1.48393
C      2.01574     1.91296     0.58109
O      1.49106     0.86784     1.39393
H      2.82629     2.42994     1.09687
H      2.13528     0.13132     1.33222
H      2.40902     1.50913    -0.35229
H      1.23180     2.62963     0.34831
C     -0.76337     2.60852     3.02858
O     -0.90516     1.32746     2.42530
H      0.19857     2.69309     3.53540
H     -0.03625     1.10491     2.02472
H     -0.83744     3.39252     2.27589
H     -1.54898     2.73802     3.77247
C     -3.93353     1.85519     1.20685
O     -3.05076     0.74378     1.12381
H     -4.49253     1.81923     2.14112
H     -2.25144     0.96230     1.67420
H     -3.38049     2.79193     1.15599
H     -4.63143     1.80411     0.37370
