 18
-347.4147953332784
C     -1.34307     2.44939    -0.35268
O     -0.75536     1.43689     0.45540
H     -0.85336     3.39013    -0.10916
H     -1.16614     0.59202     0.22645
H     -1.19900     2.23536    -1.41409
H     -2.41192     2.54625    -0.15007
C     -1.11601    -2.39356     0.37407
O     -0.98699    -1.28947    -0.51053
H     -0.70978    -3.30523    -0.06875
H     -0.04609    -1.14662    -0.67976
H     -0.60719    -2.20074     1.32168
H     -2.17670    -2.53931     0.56669
C      2.61440    -0.26378     0.47977
O      1.61484     0.05201    -0.48031
H      3.22586    -1.06449     0.06834
H      1.05728     0.75285    -0.11594
H      3.25469     0.59659     0.68497
H      2.16703    -0.60397     1.41726
