 36
-694.8514355162065
C     -0.47064     2.31245    -1.80006
O     -0.98686     1.29760    -2.64436
H     -0.95549     3.25182    -2.06553
H     -0.51769     0.48027    -2.45592
H     -0.66789     2.10480    -0.74630
H      0.60799     2.43916    -1.92809
C      3.10520     1.47841     1.74333
O      1.97640     1.18636     0.94084
H      2.98201     2.47651     2.15856
H      2.10760     0.30330     0.53431
H      3.20562     0.76464     2.56545
H      4.02113     1.45951     1.15138
C      1.47183    -2.18045     1.00291
O      1.92069    -1.31621    -0.03195
H      1.28364    -3.18245     0.61657
H      1.26677    -1.37652    -0.75089
H      2.25229    -2.24340     1.76066
H      0.55447    -1.80720     1.46159
C     -0.76259    -2.43217    -2.56613
O     -0.24094    -1.43390    -1.70781
H     -1.68252    -2.08589    -3.04069
H     -0.94001    -1.21597    -1.04481
H     -0.02576    -2.64331    -3.33653
H     -0.97376    -3.34919    -2.01220
C     -0.46221     0.70849     3.19270
O     -0.52417     0.93785     1.79973
H     -0.06160     1.57917     3.71491
H      0.38698     1.12453     1.48289
H     -1.46917     0.51939     3.56027
H      0.16498    -0.15453     3.43159
C     -3.11355     0.01634    -0.22141
O     -1.92141    -0.65381     0.16544
H     -2.89758     0.83161    -0.90990
H     -1.43517    -0.06948     0.78728
H     -3.76814    -0.70269    -0.71090
H     -3.63376     0.41253     0.65157
