 36
-694.8572703128154
C     -0.12548     3.37653     0.53593
O     -0.06214     2.58878    -0.64154
H     -1.07194     3.91366     0.59892
H     -0.91345     2.09984    -0.71107
H     -0.01921     2.75283     1.42733
H      0.68700     4.10058     0.51497
C      2.30552     0.84703    -2.15374
O      2.09075     1.04494    -0.76525
H      1.56496     0.15705    -2.56615
H      1.33471     1.66998    -0.69891
H      2.23518     1.79209    -2.69103
H      3.30175     0.43321    -2.29955
C      3.02369    -1.77250     0.90541
O      1.77709    -1.19068     0.58470
H      3.50903    -2.17760     0.01369
H      1.94904    -0.34533     0.11054
H      3.68866    -1.03998     1.36530
H      2.86208    -2.58147     1.61628
C     -0.36120    -3.80784     0.37936
O     -0.55034    -2.41607     0.22186
H     -0.15923    -4.06145     1.42356
H      0.32641    -1.99405     0.33217
H     -1.26457    -4.32375     0.05982
H      0.47341    -4.16069    -0.23042
C     -2.40420     0.31438    -1.81606
O     -2.34709     1.19871    -0.70104
H     -1.84414     0.75468    -2.64169
H     -2.44293     0.63274     0.09367
H     -1.96684    -0.65299    -1.56350
H     -3.43715     0.17026    -2.13332
C     -1.43954    -0.05618     2.32346
O     -2.26035    -0.60374     1.30155
H     -1.80185     0.94423     2.56109
H     -1.76482    -1.35490     0.92056
H     -1.49667    -0.66288     3.22734
H     -0.39716     0.00655     2.00106
