 60
-1158.0866515629614
C     -0.29202    -1.67328    -2.12609
O     -1.66864    -1.89309    -1.86437
H     -0.21776    -1.11704    -3.06142
H     -1.73122    -2.52468    -1.14047
H      0.18206    -1.08171    -1.34205
H      0.25856    -2.60809    -2.24567
C      2.72330     5.48599    -1.43651
O      2.10429     4.33568    -0.89829
H      1.98799     6.23044    -1.75834
H      1.45372     4.00187    -1.53725
H      3.34421     5.93199    -0.65925
H      3.36394     5.24189    -2.29009
C      3.86435    -2.09286     1.08851
O      2.52457    -2.16375     1.53353
H      3.92131    -1.79584     0.03637
H      2.09119    -2.87535     1.03697
H      4.38953    -1.34783     1.68632
H      4.37712    -3.05185     1.20206
C      1.27341    -5.51658     0.42639
O      1.19387    -4.14151     0.10989
H      2.27140    -5.87098     0.17476
H      0.26885    -3.86187     0.24315
H      1.09955    -5.69154     1.49146
H      0.54689    -6.09994    -0.14534
C      1.87803     1.28107     0.58562
O      0.50729     1.00338     0.27272
H      1.95215     1.89333     1.48631
H      0.05942     1.82819     0.02715
H      2.37803     0.33069     0.75621
H      2.36605     1.81399    -0.22831
C     -2.04068    -3.88604     1.69593
O     -1.25221    -3.20009     0.74127
H     -2.25348    -4.88215     1.31654
H     -1.13704    -2.27501     1.05484
H     -1.50940    -3.97877     2.64457
H     -2.98652    -3.37080     1.86837
C     -3.72179     0.38831    -0.21209
O     -3.04367     1.12006     0.81567
H     -4.57087     0.98137    -0.54019
H     -2.51732     0.49156     1.32793
H     -3.06614     0.19384    -1.05959
H     -4.08321    -0.56347     0.17579
C      0.15233     1.99655    -3.00196
O      0.04643     3.29126    -2.43141
H     -0.83184     1.58675    -3.23484
H     -0.67061     3.25584    -1.77375
H      0.72397     2.07906    -3.92237
H      0.66582     1.30722    -2.33094
C     -1.30394     4.05616     0.64646
O     -1.52309     3.00583    -0.29104
H     -2.22020     4.62428     0.80145
H     -2.15573     2.36462     0.10663
H     -0.96766     3.65502     1.60539
H     -0.53208     4.71263     0.24916
C     -0.27186    -0.73879     2.91181
O     -0.91927    -0.70561     1.64049
H      0.79421    -0.92185     2.80395
H     -0.37178    -0.11132     1.07169
H     -0.42951     0.20016     3.44613
H     -0.70801    -1.54370     3.50164
