 36
-694.856508940818
C      0.53186     2.39677    -0.36740
O      1.52483     1.43178    -0.02351
H     -0.17731     1.98941    -1.08547
H      1.81113     1.00012    -0.85966
H     -0.01139     2.68149     0.53331
H      0.99773     3.28828    -0.78912
C      3.17740    -0.74379    -2.16981
O      2.06810     0.12910    -2.28260
H      3.21934    -1.43565    -3.01271
H      1.25564    -0.42308    -2.30080
H      4.08796    -0.14871    -2.16523
H      3.14030    -1.32368    -1.24461
C      1.47776     0.87738     3.33099
O      0.79983     0.28145     2.23881
H      2.52501     1.05840     3.08408
H      1.16773     0.66934     1.41223
H      1.01541     1.82864     3.60826
H      1.43529     0.20084     4.18274
C     -3.35783    -0.32348    -1.21308
O     -2.10692     0.28500    -0.93935
H     -4.09599     0.42864    -1.49546
H     -2.00818     0.34489     0.03339
H     -3.24617    -1.02424    -2.04236
H     -3.72367    -0.87290    -0.34485
C      0.07753    -2.09705    -0.72625
O     -0.15382    -1.28003    -1.86440
H      0.22262    -1.50789     0.18154
H     -0.88187    -0.66621    -1.62706
H     -0.75270    -2.78779    -0.57137
H      0.97247    -2.69328    -0.89907
C     -2.35008    -1.02803     2.32682
O     -1.80489     0.13193     1.72782
H     -3.43631    -0.97150     2.27661
H     -0.86446     0.19436     2.00188
H     -2.02054    -1.93140     1.80569
H     -2.05607    -1.10782     3.37456
