 42
-810.6683754829842
C     -2.47838    -0.27023     0.27544
O     -2.35757     0.33163    -1.00533
H     -1.51095    -0.36893     0.77557
H     -1.74089    -0.21545    -1.53020
H     -3.13012     0.35172     0.88834
H     -2.93657    -1.25581     0.19010
C      2.56508     0.48185    -0.29070
O      2.21282     0.76111     1.05919
H      1.67929     0.42702    -0.92755
H      1.71538     1.60987     1.05675
H      3.23482     1.24922    -0.67861
H      3.08234    -0.47597    -0.32611
C      1.25440    -1.63883     3.32899
O      0.83876    -1.28098     2.02292
H      2.29891    -1.95663     3.33544
H      1.37369    -0.49722     1.75182
H      1.13882    -0.79435     4.01179
H      0.62954    -2.45788     3.68217
C     -0.60312     2.76465    -2.20702
O     -1.20810     2.74187    -0.92007
H      0.28359     3.39613    -2.16585
H     -1.74292     1.91878    -0.88842
H     -0.30898     1.75913    -2.51477
H     -1.29226     3.17672    -2.94388
C     -0.48403    -1.90717    -3.38547
O     -0.41163    -1.14166    -2.19737
H     -1.20851    -2.72035    -3.29295
H     -0.05500    -1.72678    -1.49576
H     -0.78999    -1.25657    -4.20261
H      0.48891    -2.33805    -3.63228
C     -0.42761    -3.82941     0.08309
O      0.39729    -2.71276    -0.19456
H     -1.45292    -3.51658     0.29375
H      0.57048    -2.24616     0.65163
H     -0.43381    -4.48923    -0.78307
H     -0.05507    -4.38991     0.94077
C     -0.14361     2.85695     2.23685
O      0.60280     2.88753     1.03043
H     -0.59328     1.87388     2.40383
H     -0.04668     2.88757     0.29143
H      0.52789     3.08093     3.06392
H     -0.93852     3.60242     2.22245
