 36
-694.8566335576943
C      0.06587     3.66103    -1.10874
O     -0.08885     2.25899    -1.21891
H      0.63595     3.92618    -0.21344
H     -0.85050     1.99918    -0.65114
H      0.60156     4.02542    -1.98286
H     -0.90141     4.16129    -1.06369
C     -0.06747    -2.59760    -1.26852
O     -0.39443    -2.61096     0.11812
H     -0.99202    -2.56258    -1.84506
H      0.36385    -2.18926     0.57130
H      0.53599    -1.72284    -1.51504
H      0.47807    -3.50331    -1.53843
C      2.93401    -1.93634     1.09603
O      1.71000    -1.23110     1.03000
H      3.74216    -1.28927     1.44217
H      1.83138    -0.48718     0.40775
H      2.82332    -2.75792     1.80168
H      3.21277    -2.34690     0.12207
C      3.10860     1.27785    -1.46956
O      1.99293     0.70929    -0.81178
H      3.92718     0.55998    -1.45875
H      1.21754     1.28754    -0.99766
H      2.87096     1.51821    -2.50741
H      3.43451     2.19106    -0.96741
C     -3.42311    -1.53390     1.39087
O     -2.59675    -1.10710     0.32147
H     -2.82507    -1.88229     2.23549
H     -1.83190    -1.72280     0.27340
H     -4.03283    -0.69329     1.72020
H     -4.08656    -2.33888     1.07088
C     -1.06623     1.37930     1.74751
O     -1.86260     1.43176     0.57001
H     -1.69302     1.44915     2.63810
H     -2.21238     0.52357     0.43026
H     -0.48326     0.45857     1.79534
H     -0.38344     2.22920     1.74862
