 54
-1042.280690486308
C     -5.27311    -1.10669    -0.33266
O     -3.95479    -0.79480     0.07236
H     -5.78796    -0.23464    -0.74813
H     -3.49510    -0.36361    -0.66604
H     -5.28767    -1.90566    -1.08063
H     -5.82717    -1.44609     0.54239
C      1.66266    -2.00170    -3.17653
O      1.56991    -1.66244    -1.80594
H      0.72944    -1.75711    -3.68783
H      1.99007    -0.78666    -1.66991
H      2.47809    -1.46937    -3.66945
H      1.83671    -3.07282    -3.27237
C     -1.38989    -0.00076    -2.42177
O     -2.48294     0.63924    -1.79051
H     -1.76774    -0.86689    -2.96089
H     -2.11997     1.37379    -1.26649
H     -0.90391     0.65952    -3.14263
H     -0.64447    -0.34518    -1.70451
C      1.97178     1.86346    -1.62565
O      2.66185     0.69554    -1.20481
H      2.34871     2.75171    -1.11945
H      2.70420     0.69906    -0.23157
H      2.13218     1.98057    -2.69587
H      0.89827     1.78978    -1.44034
C      1.63988    -4.37014     0.45688
O      2.12617    -3.05008     0.55071
H      0.54807    -4.39456     0.37506
H      1.93914    -2.58591    -0.27961
H      2.05403    -4.90316    -0.40470
H      1.92283    -4.90787     1.36124
C     -0.73227    -1.51328     0.88191
O     -0.21733    -0.18554     1.05861
H     -0.53457    -1.87782    -0.12535
H     -0.72607     0.44540     0.52707
H     -0.22694    -2.16182     1.59111
H     -1.80364    -1.53406     1.07221
C     -2.50352     2.37567     1.04668
O     -1.45331     2.27502     0.08134
H     -3.39017     1.88915     0.64794
H     -0.64194     2.64117     0.49435
H     -2.22938     1.88296     1.98201
H     -2.73410     3.42318     1.24550
C      3.07783    -0.18785     2.30610
O      2.22233     0.60702     1.49052
H      2.74142    -0.16006     3.34367
H      1.34885     0.15174     1.40294
H      3.08826    -1.21716     1.95166
H      4.07993     0.23087     2.25189
C      0.54166     3.23598     2.73435
O      0.81516     3.00636     1.35300
H      1.28650     3.90135     3.17132
H      1.47460     2.29208     1.32590
H     -0.43472     3.71107     2.82321
H      0.53199     2.29567     3.28650
