 48
-926.4804074704989
C      0.28563     3.45643     1.56135
O      0.98145     2.37540     0.96263
H      0.42610     3.41497     2.64202
H      0.51918     2.17319     0.12303
H      0.67832     4.41056     1.20324
H     -0.78298     3.40644     1.34386
C     -0.59041    -1.65607    -2.67473
O     -0.35428    -2.31071    -1.43982
H     -1.50509    -2.05267    -3.11507
H      0.58936    -2.13732    -1.20854
H     -0.70041    -0.57664    -2.54604
H      0.22082    -1.84195    -3.37879
C     -3.26773    -2.56004     0.34711
O     -2.23322    -1.59818     0.28057
H     -4.10320    -2.13680     0.90320
H     -1.52369    -1.96974    -0.29263
H     -3.61840    -2.83711    -0.65064
H     -2.93399    -3.46369     0.85946
C     -0.62501     3.20550    -1.97811
O     -0.43068     1.99189    -1.27588
H     -0.58495     4.06252    -1.30090
H     -1.30872     1.58345    -1.10772
H      0.16561     3.31618    -2.71842
H     -1.58714     3.22044    -2.49109
C     -3.70410     0.52292    -1.72118
O     -2.74805     0.80721    -0.71848
H     -4.70647     0.47702    -1.29235
H     -2.57821    -0.04360    -0.25369
H     -3.68786     1.31602    -2.46927
H     -3.49463    -0.42873    -2.21098
C      2.57702    -0.39208    -1.32818
O      2.14069    -1.66006    -0.86378
H      2.37781     0.39067    -0.59747
H      2.36957    -1.69239     0.09232
H      3.64687    -0.40784    -1.54198
H      2.05520    -0.14797    -2.25370
C     -0.06147     0.05466     3.03991
O      1.27096     0.43426     2.73391
H     -0.49434    -0.56322     2.25071
H      1.20980     1.16149     2.07529
H     -0.05357    -0.51475     3.96572
H     -0.69426     0.93225     3.17779
C      4.08958    -1.24770     1.99641
O      2.73201    -1.53525     1.71457
H      4.72080    -1.85505     1.34830
H      2.19357    -0.84452     2.16337
H      4.31568    -0.19414     1.81790
H      4.32871    -1.48547     3.03401
