 36
-694.8482072004493
C      1.96122     1.33313     1.22294
O      1.52162     0.40421     0.22896
H      1.12057     1.68648     1.81736
H      0.68551     0.73044    -0.14364
H      2.67201     0.81910     1.86633
H      2.45442     2.18486     0.75327
C     -1.02104     0.56193    -2.18371
O     -1.07098     0.83311    -0.78769
H     -0.22184    -0.14284    -2.41341
H     -1.52295     0.06078    -0.35277
H     -1.96704     0.14108    -2.52171
H     -0.84188     1.49717    -2.70575
C      0.89726    -3.28123     0.34444
O      0.38128    -2.18929     1.10615
H      1.01873    -3.00754    -0.70293
H      0.95526    -1.42167     0.98523
H      1.85880    -3.60524     0.74436
H      0.18932    -4.10429     0.42625
C      3.33034    -0.62849    -2.78962
O      2.35098    -1.26620    -1.98951
H      3.04605     0.40069    -3.03050
H      2.18872    -0.71768    -1.21227
H      4.30731    -0.61408    -2.29815
H      3.41924    -1.18829    -3.72017
C     -2.59466    -0.79816     1.72345
O     -2.03775    -1.21715     0.47483
H     -2.61098     0.29150     1.77954
H     -1.22304    -1.72665     0.67608
H     -3.61454    -1.17169     1.80706
H     -1.99954    -1.18236     2.55170
C     -2.30615     3.53646     1.33292
O     -1.10340     2.79384     1.24660
H     -3.17175     2.93278     1.04224
H     -1.14145     2.23473     0.45925
H     -2.44060     3.85002     2.36776
H     -2.27542     4.42804     0.70046
