 42
-810.663779468529
C     -1.08806    -2.93622    -0.85936
O     -1.81931    -1.76774    -0.53185
H     -1.54804    -3.77998    -0.34759
H     -1.45654    -1.03642    -1.05923
H     -1.12055    -3.12668    -1.93427
H     -0.04589    -2.85994    -0.54521
C      1.85434    -1.25745     2.14046
O      2.26856    -0.23451     1.24329
H      2.32550    -2.20855     1.88875
H      2.16847    -0.59391     0.34222
H      2.16637    -0.97960     3.14602
H      0.76982    -1.38537     2.12324
C     -3.09240    -1.80050     2.68434
O     -1.92421    -1.22769     2.14339
H     -3.04877    -1.71333     3.76979
H     -1.93289    -1.39397     1.18812
H     -3.99429    -1.29007     2.33426
H     -3.18428    -2.86183     2.43358
C      0.09737     1.90400     2.66689
O      0.94191     2.08563     1.53540
H     -0.51137     2.79891     2.78930
H      1.50518     1.28541     1.45874
H     -0.55814     1.04103     2.54360
H      0.69156     1.77287     3.57211
C     -0.87760     0.48961    -3.28115
O     -0.59542     0.22217    -1.92182
H     -0.17019     1.21268    -3.68730
H     -0.55967     1.09693    -1.44401
H     -0.79408    -0.43762    -3.84582
H     -1.88720     0.88294    -3.39507
C      2.74128    -0.56084    -2.18189
O      1.78173    -1.10125    -1.28899
H      2.78238     0.52965    -2.11262
H      0.91451    -0.74131    -1.53962
H      3.71707    -0.96380    -1.91953
H      2.51940    -0.83779    -3.21402
C      0.17913     3.60660    -1.38263
O     -0.38828     2.49366    -0.71187
H     -0.05320     4.53070    -0.85423
H      0.07392     2.41898     0.16011
H      1.26389     3.51097    -1.46298
H     -0.24129     3.66958    -2.38590
