 60
-1158.1000580015957
C     -3.18513    -0.53128     1.80720
O     -3.06288    -1.40235     0.69635
H     -2.97091    -1.08821     2.71905
H     -3.20305    -0.87698    -0.12221
H     -2.48738     0.30152     1.73599
H     -4.20113    -0.14115     1.88559
C     -0.96861     3.72329     0.75763
O     -0.21398     2.94054     1.66084
H     -2.02881     3.54291     0.92694
H      0.68932     3.33029     1.69778
H     -0.77609     4.78636     0.89985
H     -0.73128     3.47173    -0.28006
C      4.91321     1.59696     0.47050
O      3.57607     1.58758     0.92567
H      5.50320     2.24463     1.11787
H      3.06497     0.94413     0.37973
H      5.34452     0.59537     0.50413
H      4.97980     1.97078    -0.55537
C     -2.67903    -3.16252    -2.72126
O     -1.87877    -2.00218    -2.90736
H     -2.30308    -3.99600    -3.31648
H     -1.00331    -2.19069    -2.51651
H     -2.69796    -3.46014    -1.67176
H     -3.69699    -2.93857    -3.04014
C      1.70670    -3.14734    -1.56541
O      0.34322    -2.76308    -1.59005
H      2.27875    -2.49090    -0.91414
H     -0.02433    -2.85721    -0.68524
H      1.81953    -4.18019    -1.22734
H      2.10198    -3.07001    -2.57657
C     -1.26262    -4.22436     1.28039
O     -0.90049    -2.97115     0.73602
H     -0.38586    -4.87094     1.29043
H     -1.69693    -2.38968     0.72603
H     -1.62491    -4.11910     2.30472
H     -2.04350    -4.70024     0.68348
C      0.38927    -0.26807     2.46113
O      0.02611     0.31533     1.21837
H      0.40675    -1.34866     2.34081
H     -0.10430     1.28065     1.36629
H      1.37227     0.07044     2.79140
H     -0.33506    -0.01977     3.23784
C      1.66427     0.33922    -1.78307
O      2.06220    -0.04407    -0.47876
H      1.13772     1.29616    -1.78574
H      1.25904    -0.07012     0.08605
H      2.56078     0.45425    -2.39205
H      1.02755    -0.42496    -2.22240
C      2.62634     4.70816     0.44748
O      2.29625     3.83226     1.50821
H      2.50805     4.21976    -0.52340
H      2.82355     3.01547     1.36980
H      1.96463     5.57265     0.48482
H      3.65530     5.06000     0.53602
C     -2.24568     1.07830    -1.58290
O     -3.13919    -0.02174    -1.61991
H     -2.78118     1.94469    -1.19325
H     -2.74086    -0.68786    -2.22103
H     -1.38166     0.87587    -0.94360
H     -1.89007     1.33213    -2.58358
