 48
-926.4735797078041
C     -1.88763    -1.12287     3.12067
O     -1.12974     0.05431     2.90317
H     -2.04740    -1.65965     2.18452
H     -1.46012     0.41559     2.05971
H     -1.34923    -1.76831     3.81312
H     -2.86129    -0.87953     3.55232
C      0.53829    -2.55062    -2.96781
O      0.15274    -2.24024    -1.63854
H      1.54089    -2.98176    -2.98858
H      0.88495    -1.74814    -1.20665
H     -0.15638    -3.28717    -3.36946
H      0.52414    -1.66151    -3.59645
C     -2.48940    -0.47503    -2.57781
O     -2.11390    -0.94277    -1.28546
H     -2.99229    -1.26721    -3.13300
H     -1.30092    -1.49364    -1.40125
H     -3.18452     0.35575    -2.45981
H     -1.62332    -0.13236    -3.14149
C      1.39347     2.70528     0.33691
O      0.64382     1.67451    -0.31504
H      2.44132     2.56558     0.07563
H     -0.23447     1.59283     0.09145
H      1.06934     3.68709    -0.00866
H      1.28914     2.62626     1.41649
C     -3.22571     1.57297     0.55256
O     -1.99405     0.87179     0.52727
H     -3.24627     2.21464     1.43131
H     -2.06890     0.15015    -0.16055
H     -3.33469     2.19655    -0.33520
H     -4.06479     0.87792     0.60528
C      2.09252    -1.14691     0.98725
O      1.94271    -0.71223    -0.35868
H      2.44599    -2.17653     0.97448
H      1.55858     0.18225    -0.33314
H      2.82526    -0.53548     1.51167
H      1.14971    -1.10765     1.53500
C      2.02377     0.46156     4.39978
O      1.40107     1.06639     3.28473
H      2.77754     1.14350     4.79248
H      0.50557     0.70356     3.19885
H      1.30962     0.24061     5.19750
H      2.52183    -0.47254     4.12059
C      2.16267     0.61713    -3.42823
O      0.78310     0.83488    -3.18779
H      2.28912     0.41767    -4.49155
H      0.67160     1.14671    -2.28270
H      2.76210     1.49304    -3.16806
H      2.54093    -0.23932    -2.86794
