 54
-1042.289376550856
C      4.30723    -3.31770     1.05304
O      2.99830    -2.85824     0.76826
H      4.92993    -3.29804     0.15545
H      3.08090    -1.97290     0.34594
H      4.78373    -2.69972     1.81839
H      4.24765    -4.34353     1.41075
C      0.47342     0.99185    -4.23606
O     -0.01640     0.63053    -2.95952
H      1.45636     0.53791    -4.37221
H     -0.89275     1.04709    -2.83038
H     -0.17928     0.62931    -5.03506
H      0.58466     2.07548    -4.33891
C     -0.46083    -1.94992    -0.60538
O     -0.88577    -1.38320     0.64200
H      0.61520    -2.10932    -0.61503
H     -0.29945    -1.78046     1.33301
H     -0.95689    -2.90572    -0.75809
H     -0.71336    -1.27697    -1.41910
C      2.89819    -0.25410    -1.62377
O      3.01332    -0.39282    -0.21524
H      3.37065    -1.11467    -2.09964
H      2.29820     0.13790     0.19342
H      1.86115    -0.18822    -1.94606
H      3.42600     0.64336    -1.95323
C      0.69655     2.19926     0.16087
O      0.89745     0.91116     0.75048
H     -0.13613     2.72016     0.62860
H      0.12367     0.35227     0.58824
H      1.60143     2.77921     0.33078
H      0.52812     2.12307    -0.91171
C     -3.93469     3.25979     0.28401
O     -2.69772     2.60775     0.06534
H     -4.08964     3.98874    -0.51038
H     -2.64196     1.85467     0.69269
H     -4.76440     2.54917     0.27610
H     -3.93488     3.78695     1.24051
C     -1.83101     0.70927     2.88106
O     -2.52353     0.46163     1.66367
H     -2.08084    -0.05419     3.61933
H     -2.11020    -0.32776     1.26615
H     -0.75322     0.71928     2.72753
H     -2.14018     1.67949     3.26901
C      1.33879    -1.38402     3.32154
O      0.88042    -2.31083     2.34471
H      0.52807    -1.19833     4.02712
H      1.66156    -2.62846     1.84228
H      2.18816    -1.78544     3.87466
H      1.62995    -0.44075     2.85821
C     -3.19804     0.34202    -2.14035
O     -2.45677     1.53600    -2.36108
H     -4.26213     0.51294    -2.30922
H     -2.52253     2.05348    -1.53111
H     -2.85673    -0.41554    -2.84609
H     -3.05791    -0.03796    -1.12634
