 60
-1158.092535089142
C      5.40356    -1.16394    -0.46941
O      4.76047    -0.07258     0.15887
H      6.45543    -1.14783    -0.19039
H      3.88980     0.01010    -0.24452
H      4.97500    -2.11753    -0.14374
H      5.33045    -1.10808    -1.55866
C     -1.54601     1.88003    -3.91747
O     -1.83490     1.02118    -2.82745
H     -1.81554     1.41147    -4.86553
H     -1.42397     0.14851    -3.00577
H     -2.13018     2.79157    -3.80242
H     -0.48629     2.14352    -3.94674
C      2.58074    -0.69269     2.69177
O      1.50112    -0.09508     1.97872
H      2.73372    -1.72938     2.38236
H      1.81245     0.16094     1.09991
H      3.50619    -0.14050     2.54217
H      2.32572    -0.67915     3.74969
C     -1.23117     0.77472     4.31638
O     -2.32348     1.04317     3.46577
H     -1.49018    -0.07727     4.94551
H     -2.10624     1.84587     2.96537
H     -0.32638     0.52660     3.75481
H     -1.00843     1.61987     4.97344
C      1.33204     0.93981    -1.49360
O      2.12210    -0.05359    -0.84171
H      1.92282     1.85099    -1.54951
H      1.69723    -0.91527    -0.98742
H      1.07454     0.62806    -2.50340
H      0.41299     1.14674    -0.94583
C     -1.70272    -2.41018    -3.43869
O     -0.76161    -1.37539    -3.19278
H     -1.23075    -3.23723    -3.97151
H     -0.24473    -1.67754    -2.41996
H     -2.11830    -2.78549    -2.50175
H     -2.51366    -2.01890    -4.05245
C     -3.65933     1.44613    -0.11108
O     -2.36043     1.95456    -0.40424
H     -3.82267     0.49178    -0.61673
H     -2.14770     1.65328    -1.30932
H     -3.74849     1.29165     0.96443
H     -4.42913     2.14892    -0.43327
C      1.18613    -3.52952    -1.14324
O      0.49095    -2.29826    -1.04814
H      0.50447    -4.36135    -0.97477
H      0.08411    -2.22712    -0.13148
H      1.61349    -3.61226    -2.14039
H      1.99124    -3.56920    -0.40943
C     -1.73308    -1.41571     1.42705
O     -0.39668    -1.91019     1.31625
H     -2.02921    -1.32407     2.46796
H      0.21100    -1.25484     1.72090
H     -1.84323    -0.44329     0.94815
H     -2.39376    -2.12670     0.93319
C     -0.12760     3.33517     1.77302
O     -1.52329     3.11355     1.83886
H      0.41352     2.39469     1.64225
H     -1.80420     2.79879     0.95784
H      0.12812     4.00427     0.94871
H      0.19391     3.79864     2.70300
