 42
-810.665551887268
C      0.50131    -3.35529    -0.97945
O      0.22138    -2.63331     0.20509
H      0.62003    -4.41453    -0.74361
H     -0.54995    -2.07595     0.07031
H     -0.30081    -3.25757    -1.71706
H      1.42699    -2.99662    -1.42836
C      1.16383     2.62318     2.71974
O      0.53454     1.90175     1.67931
H      0.56506     3.50349     2.95065
H      1.20939     1.30770     1.27781
H      1.26174     2.01336     3.62154
H      2.15768     2.95295     2.41431
C     -3.46446    -1.49299    -0.10537
O     -2.14983    -0.96718    -0.11697
H     -4.13458    -0.85528    -0.68631
H     -2.10349    -0.24009     0.55169
H     -3.44106    -2.48798    -0.54403
H     -3.84035    -1.56523     0.91505
C      2.55853     0.31091    -2.90519
O      1.88869    -0.50410    -1.96040
H      3.57088     0.50312    -2.54979
H      0.92633    -0.43635    -2.13532
H      2.62038    -0.19258    -3.87153
H      2.04759     1.26645    -3.04261
C     -0.77329     1.41830    -1.72979
O     -0.73672     0.06802    -2.18864
H      0.06244     1.63955    -1.06284
H     -1.30974    -0.44029    -1.58939
H     -0.71235     2.07958    -2.59303
H     -1.69855     1.61914    -1.19236
C      2.70186    -0.80634     1.41941
O      2.27944     0.26317     0.58158
H      3.48819    -1.38636     0.93410
H      2.15881    -0.09070    -0.32622
H      3.10797    -0.39435     2.34346
H      1.86822    -1.46687     1.64856
C     -2.78698     2.16446     1.63961
O     -1.93832     1.03519     1.55654
H     -3.81591     1.85239     1.46372
H     -1.01483     1.36648     1.65392
H     -2.72805     2.62104     2.62884
H     -2.51154     2.91558     0.89578
