 42
-810.6626380720203
C     -2.51236     2.29606    -0.16848
O     -1.54788     1.36229    -0.63103
H     -2.97493     1.98195     0.77216
H     -0.84908     1.25945     0.02724
H     -2.07736     3.29002    -0.02726
H     -3.29446     2.37016    -0.92210
C     -2.84965    -1.37606     1.68575
O     -1.89176    -1.66829     2.68511
H     -3.15452    -2.27500     1.14224
H     -1.10141    -1.97797     2.22808
H     -3.73288    -0.96164     2.17103
H     -2.47162    -0.65339     0.96130
C      0.58873     1.31710    -3.33190
O      1.34986     0.49864    -2.45485
H     -0.31465     1.67551    -2.83970
H      1.68053     1.06532    -1.72789
H      1.17675     2.16907    -3.67711
H      0.31418     0.72464    -4.20400
C     -1.21360    -1.65455    -2.13835
O      0.06885    -1.63272    -1.52479
H     -1.67982    -2.61832    -1.93784
H      0.57153    -0.86187    -1.88155
H     -1.84369    -0.85927    -1.74457
H     -1.12808    -1.53607    -3.21835
C      1.53702    -2.69613     1.16132
O      0.33109    -1.96071     1.01873
H      1.53027    -3.20200     2.12399
H      0.15814    -1.86634     0.03950
H      1.62429    -3.43316     0.36534
H      2.39557    -2.02330     1.10552
C      3.41963     1.54836     0.13680
O      2.08673     1.85132    -0.23887
H      3.59339     0.46787     0.13788
H      1.51010     1.49494     0.46220
H      4.09857     2.01114    -0.57674
H      3.64231     1.93729     1.13246
C     -0.07182     1.15205     2.79877
O      0.46156     0.70258     1.55512
H      0.61576     0.92058     3.61127
H      0.43614    -0.27533     1.52253
H     -0.18921     2.23206     2.73315
H     -1.03735     0.69252     2.99390
