 36
-694.854064009889
C     -0.53854     3.03605    -1.35726
O      0.39130     2.01096    -1.66103
H     -1.01475     3.34124    -2.28846
H      0.82713     1.73734    -0.84703
H     -1.31013     2.69084    -0.66699
H     -0.04761     3.91087    -0.92184
C      2.86679     1.31890     1.31606
O      1.62680     0.83145     0.83424
H      3.32670     0.59836     1.99264
H      1.77241    -0.04822     0.40056
H      3.55154     1.51725     0.48950
H      2.67995     2.24657     1.85249
C      1.98648    -1.13591    -1.88987
O      1.85082    -1.41497    -0.49628
H      1.17411    -0.49623    -2.23964
H      1.06339    -2.00059    -0.40890
H      2.93440    -0.62570    -2.05378
H      1.98178    -2.06010    -2.46670
C     -0.71739    -3.42622     0.87076
O     -0.49483    -2.68116    -0.31370
H     -0.42306    -2.85194     1.75459
H     -1.13899    -1.93830    -0.31419
H     -1.76907    -3.69993     0.96935
H     -0.12444    -4.33792     0.82944
C     -2.43947    -0.00710    -1.44381
O     -2.12252    -0.56180    -0.17538
H     -3.13314     0.82862    -1.33565
H     -1.79028     0.15094     0.40573
H     -1.54309     0.33888    -1.96056
H     -2.92744    -0.77339    -2.04488
C     -1.16519     0.87887     2.83404
O     -0.96432     1.25599     1.48162
H     -2.19616     1.09536     3.10725
H     -0.00980     1.17686     1.29901
H     -0.97740    -0.18967     2.97645
H     -0.50262     1.43912     3.49649
