 42
-810.6700297527236
C     -2.78530     2.82713    -2.22804
O     -2.49304     1.88603    -1.21304
H     -3.53693     2.43669    -2.91747
H     -2.10163     1.09750    -1.64547
H     -3.17939     3.72998    -1.76433
H     -1.89073     3.08577    -2.80032
C      2.76447    -0.01705     2.99341
O      1.71580    -0.94937     2.78702
H      2.96443     0.54767     2.07874
H      0.88730    -0.42844     2.70553
H      2.51020     0.68563     3.78706
H      3.66336    -0.55874     3.27771
C      1.03855    -3.58541     0.89111
O      1.76937    -2.41265     0.56946
H      1.34133    -3.98065     1.86041
H      1.83305    -1.87544     1.39188
H     -0.03496    -3.38126     0.92213
H      1.23321    -4.33766     0.12951
C      0.49788     2.47987    -0.24449
O     -0.64323     2.60677     0.59004
H      0.34177     1.74398    -1.03384
H     -1.41669     2.45246     0.01023
H      0.75079     3.43730    -0.70119
H      1.34329     2.15916     0.36482
C     -2.15183    -1.41582    -2.36702
O     -1.32892    -0.26685    -2.27116
H     -1.75477    -2.12018    -3.09954
H     -0.42264    -0.57276    -2.04761
H     -2.23361    -1.92277    -1.40153
H     -3.14875    -1.11193    -2.68603
C      2.27266    -0.47394    -2.02889
O      1.07325    -1.09810    -1.60397
H      3.09515    -1.18897    -2.04914
H      1.30592    -1.62704    -0.80805
H      2.13408    -0.07320    -3.03193
H      2.54493     0.34014    -1.35330
C     -1.32300    -0.37360     1.46668
O     -0.46969     0.48002     2.22279
H     -0.80523    -0.79906     0.60594
H     -0.49196     1.35169     1.77386
H     -1.65928    -1.18934     2.10633
H     -2.19520     0.16678     1.10059
