 48
-926.4822619871741
C     -2.61446    -1.51651     2.03750
O     -1.26038    -1.93891     2.15150
H     -3.01978    -1.78704     1.06288
H     -1.02196    -2.41545     1.32024
H     -3.21106    -1.98811     2.81689
H     -2.68719    -0.43335     2.15124
C     -2.72455    -1.37072    -2.40998
O     -1.34754    -1.66914    -2.28542
H     -2.94484    -0.36469    -2.04638
H     -0.83904    -0.89093    -2.60682
H     -3.04851    -1.44812    -3.44886
H     -3.29437    -2.08483    -1.81341
C      1.13960     0.00300    -3.99055
O      0.09171     0.40153    -3.11833
H      1.79477     0.84561    -4.21134
H      0.51415     0.98846    -2.44687
H      1.74078    -0.79013    -3.53707
H      0.70681    -0.36306    -4.91979
C     -1.59934     1.35475     0.02975
O     -1.00365     2.01986     1.12421
H     -2.68130     1.50280     0.06336
H     -0.51744     1.37978     1.65204
H     -1.23561     1.76651    -0.91063
H     -1.40205     0.27969     0.01440
C      0.59635     0.15091     4.04760
O      0.41498    -0.01930     2.65096
H      1.30973     0.95485     4.21783
H     -0.19986    -0.78787     2.51183
H     -0.34891     0.41419     4.52388
H      0.97991    -0.76496     4.49576
C      0.95601    -2.85117    -0.19823
O     -0.46263    -2.95915    -0.15974
H      1.28010    -1.80900    -0.15032
H     -0.80789    -2.53763    -0.97845
H      1.36597    -3.38946     0.65479
H      1.35372    -3.30032    -1.10876
C      1.12957     3.24887    -1.13207
O      1.35833     1.87469    -1.39239
H      0.45509     3.38216    -0.28932
H      1.63696     1.42546    -0.56474
H      2.06880     3.76775    -0.93279
H      0.68775     3.69720    -2.02171
C      3.02607     1.61480     1.52954
O      2.20500     0.69188     0.83224
H      2.43328     2.24332     2.19752
H      1.57118     0.34123     1.48489
H      3.79161     1.09687     2.11162
H      3.52615     2.26080     0.80867
