 36
-694.8473789079767
C      3.60461     2.20109    -1.95898
O      2.32449     1.99228    -1.39864
H      3.80945     1.50670    -2.77849
H      2.13127     1.04058    -1.45973
H      3.65550     3.21647    -2.35202
H      4.39103     2.08385    -1.20663
C     -0.61012     2.64238     0.09330
O     -0.93893     1.27157     0.32875
H     -0.95488     3.21575     0.95305
H     -0.83018     0.75864    -0.48158
H      0.46431     2.76323    -0.02334
H     -1.11454     3.01327    -0.80131
C      2.18034    -1.21889    -0.21854
O      1.83312    -0.66952    -1.48493
H      2.56092    -2.23484    -0.33471
H      0.90540    -0.89244    -1.65258
H      2.95967    -0.60174     0.22616
H      1.32515    -1.23144     0.45760
C     -2.81545    -2.07914     1.23402
O     -1.42715    -2.11939     0.93184
H     -2.99126    -2.27315     2.29221
H     -0.97234    -1.56386     1.59760
H     -3.24607    -1.10679     0.98226
H     -3.31725    -2.85250     0.65532
C     -1.98052    -1.25562    -2.34216
O     -0.86905    -1.09189    -1.47373
H     -1.82276    -2.10360    -3.00839
H     -1.07004    -1.56476    -0.63690
H     -2.89234    -1.41863    -1.76730
H     -2.09250    -0.35036    -2.93483
C     -0.61694     0.37701     3.71486
O     -0.29359    -0.21859     2.46945
H     -0.20399     1.38493     3.78391
H     -0.44350     0.44760     1.76954
H     -1.69950     0.43117     3.85631
H     -0.18420    -0.22990     4.50726
