 60
-1158.0936575965106
C      1.34303     4.30291    -3.13042
O      0.32579     3.45692    -3.62241
H      1.12998     4.64654    -2.11238
H      0.27425     2.69771    -3.02093
H      2.31820     3.80592    -3.12595
H      1.40445     5.17524    -3.77976
C      1.82441    -3.74777     2.18242
O      2.76945    -2.90519     1.53340
H      1.89966    -4.76317     1.79065
H      2.36146    -2.48534     0.76086
H      2.06554    -3.77909     3.24429
H      0.80296    -3.38895     2.06629
C     -0.73330     0.37404    -2.47084
O      0.02975     1.38495    -1.82792
H     -0.60885    -0.58817    -1.97234
H     -0.54141     1.78086    -1.14391
H     -1.79098     0.63246    -2.48939
H     -0.38922     0.28023    -3.50099
C      2.38802    -0.93749    -1.44407
O      1.54222    -1.13519    -0.31789
H      2.04190    -0.08476    -2.02078
H      1.59377    -0.31146     0.24408
H      3.41651    -0.77254    -1.12141
H      2.35965    -1.83594    -2.05995
C      4.71984    -0.44381     2.91473
O      3.32602    -0.70048     2.98913
H      5.28840    -1.25648     3.36785
H      3.16913    -1.57512     2.57862
H      5.04577    -0.32458     1.87784
H      4.92865     0.47485     3.45855
C     -2.63168    -0.80258     2.00535
O     -2.98057    -1.55246     0.84775
H     -2.29159     0.19842     1.73044
H     -2.16666    -2.02528     0.57519
H     -3.51179    -0.70674     2.63975
H     -1.83945    -1.29747     2.56844
C     -5.18885     0.60887    -0.47399
O     -3.81916     0.39122    -0.77177
H     -5.41613     1.66546    -0.61902
H     -3.54406    -0.41598    -0.28487
H     -5.82448     0.02563    -1.14251
H     -5.42086     0.34032     0.55779
C     -0.51969    -3.75548    -0.69629
O     -0.66648    -2.62485     0.14127
H      0.40253    -4.29309    -0.47004
H      0.08441    -2.02136    -0.02845
H     -1.36428    -4.42214    -0.53105
H     -0.50263    -3.46637    -1.74995
C      0.71199     1.37240     2.02398
O      1.82927     0.81182     1.34426
H     -0.05777     1.63189     1.29970
H      2.41318     0.40062     2.02235
H      0.29256     0.66730     2.74586
H      1.00483     2.27835     2.55415
C     -2.34466     3.54574    -0.97304
O     -2.01001     2.35221    -0.28095
H     -3.41263     3.76143    -0.89755
H     -2.71631     1.69731    -0.45499
H     -1.79699     4.36838    -0.51494
H     -2.06859     3.49062    -2.02774
