 60
-1158.0928476419385
C     -2.88994    -1.87125    -3.51254
O     -3.00755    -0.83054    -2.55682
H     -1.92909    -2.38442    -3.42391
H     -2.23184    -0.23417    -2.68794
H     -3.68747    -2.59560    -3.34578
H     -2.98376    -1.47983    -4.52540
C      2.73359     3.87020    -1.82723
O      2.30829     2.93144    -0.84843
H      3.39067     3.35217    -2.52530
H      1.95496     3.42181    -0.08698
H      1.88121     4.26576    -2.38488
H      3.27881     4.69828    -1.37103
C     -0.40771    -2.87078     3.87460
O      0.16714    -2.81479     2.57906
H      0.10696    -2.15710     4.51637
H     -0.48966    -3.17818     1.94258
H     -1.46842    -2.61333     3.84521
H     -0.29665    -3.86624     4.30707
C     -0.73177    -3.49717    -0.54262
O     -1.53458    -3.39733     0.62698
H     -1.22848    -4.11093    -1.29606
H     -2.26833    -2.78150     0.41242
H     -0.51340    -2.51406    -0.96556
H      0.20641    -3.98462    -0.27864
C      3.97848     0.88866     1.82416
O      4.13237     2.19975     1.29687
H      2.94734     0.54063     1.74397
H      3.73765     2.22293     0.41515
H      4.63684     0.18175     1.31234
H      4.26281     0.92046     2.87414
C     -0.99110     2.05148    -2.56968
O     -0.84232     0.65706    -2.79674
H     -0.98251     2.57407    -3.52528
H     -0.12877     0.34786    -2.19549
H     -1.94209     2.25489    -2.07194
H     -0.18129     2.42828    -1.94741
C     -4.81251    -2.04073     0.01609
O     -3.44523    -1.68176    -0.08814
H     -5.10035    -2.74162    -0.77094
H     -3.30836    -1.31286    -0.99145
H     -4.97974    -2.51433     0.98292
H     -5.45000    -1.15789    -0.05469
C      2.32621    -0.34951    -1.35502
O      0.95187    -0.14873    -1.07094
H      2.42473    -1.03559    -2.19668
H      0.79771    -0.24311    -0.10890
H      2.80477     0.59687    -1.60395
H      2.84061    -0.79148    -0.50243
C      0.84292     3.31815     2.35543
O      1.89485     4.00821     1.69681
H     -0.09054     3.79033     2.05465
H      2.72910     3.57933     1.92986
H      0.81353     2.26201     2.08198
H      0.94080     3.40220     3.43908
C     -0.96402     0.06449     1.73195
O      0.37672    -0.37999     1.53918
H     -1.67123    -0.75705     1.65323
H      0.43497    -1.26856     1.95515
H     -1.06973     0.52794     2.71356
H     -1.21515     0.81019     0.97841
