 24
-463.2288867883145
C      2.78472     1.00057     0.33871
O      1.50424     0.53498     0.73011
H      2.85136     1.10387    -0.74736
H      1.34079    -0.33450     0.31300
H      2.94684     1.97412     0.79844
H      3.56928     0.32157     0.67719
C     -0.47754     2.73068    -0.93381
O     -0.73950     1.92987     0.20670
H     -0.10640     2.13088    -1.76943
H      0.11650     1.56359     0.50992
H     -1.40457     3.21406    -1.23092
H      0.25895     3.50294    -0.70620
C     -2.33854    -0.95812     0.89879
O     -1.70539    -0.52564    -0.29720
H     -1.62365    -1.03345     1.72176
H     -1.49637     0.42602    -0.17826
H     -3.13171    -0.26919     1.18914
H     -2.77847    -1.93819     0.71922
C      0.63619    -3.12722    -0.31920
O      0.67941    -1.72489    -0.51754
H     -0.12981    -3.58665    -0.94760
H     -0.24569    -1.40284    -0.56971
H      1.60378    -3.54310    -0.59174
H      0.42626    -3.37181     0.72482
