 36
-694.8579973609666
C     -2.81042     1.36550    -1.96183
O     -1.46207     0.93772    -1.96934
H     -3.33040     0.90598    -2.80057
H     -0.97103     1.46947    -1.30592
H     -3.31437     1.06933    -1.03707
H     -2.88210     2.44966    -2.06506
C      2.98504     1.09908     0.19118
O      1.89146     1.20815     1.08716
H      3.43932     2.07955     0.06457
H      1.75272     0.31789     1.47895
H      3.73797     0.40943     0.57251
H      2.64855     0.73555    -0.78415
C      2.45601    -2.30206     1.50608
O      1.54899    -1.29467     1.90974
H      3.44329    -2.05988     1.89596
H      0.65542    -1.58791     1.61583
H      2.16020    -3.27549     1.89893
H      2.50876    -2.36993     0.41666
C      0.18565    -1.93806    -2.36902
O     -1.03606    -1.67405    -1.70313
H      0.35397    -3.01280    -2.38683
H     -1.24787    -0.73037    -1.87442
H      0.16049    -1.56891    -3.39468
H      1.02389    -1.45923    -1.85381
C     -1.00973     2.87570     0.96727
O     -0.22807     2.29526    -0.06271
H     -2.06925     2.74109     0.74006
H      0.57810     1.92494     0.36084
H     -0.79970     2.40682     1.92922
H     -0.80769     3.94477     1.04397
C     -1.76000    -0.92809     1.43840
O     -0.84475    -1.90496     0.95783
H     -1.63954    -0.84151     2.51824
H     -0.92992    -1.92556    -0.02097
H     -1.58027     0.04847     0.98385
H     -2.78747    -1.23221     1.23642
