 36
-694.8520495970096
C      1.40029     0.88349    -2.54280
O      1.64009     0.34910    -1.25041
H      1.94119     0.31401    -3.29712
H      1.27164    -0.57418    -1.23605
H      0.33420     0.86620    -2.77722
H      1.74999     1.91283    -2.55847
C      0.58386     2.71298     1.08963
O      0.05532     1.49824     0.58661
H     -0.09677     3.53574     0.86850
H      0.68335     1.10621    -0.05292
H      0.70458     2.64535     2.17110
H      1.55570     2.92904     0.64361
C      2.76625     0.23164     2.19622
O      3.29949    -0.40115     1.05553
H      3.18793    -0.25376     3.07558
H      2.89551    -0.01642     0.27050
H      3.03966     1.29010     2.23708
H      1.67794     0.15281     2.24468
C     -2.89435    -1.47488    -1.67209
O     -2.12451    -1.71076    -0.50392
H     -3.65943    -2.24469    -1.77393
H     -2.29192    -0.96781     0.11192
H     -3.37498    -0.49704    -1.62693
H     -2.25222    -1.50751    -2.55493
C     -3.29740     1.57091     0.53249
O     -2.39049     0.55218     0.90565
H     -4.29821     1.14494     0.48045
H     -1.49171     0.93417     0.84544
H     -3.30262     2.38045     1.26570
H     -3.04190     1.98979    -0.44559
C      0.99375    -2.57846     0.25886
O      0.48735    -1.95601    -0.91989
H      2.05521    -2.77287     0.12688
H     -0.49091    -1.89370    -0.80907
H      0.86298    -1.94071     1.13452
H      0.48439    -3.52531     0.43533
