 60
-1158.1010604122519
C      0.13418     5.25723    -1.30953
O     -0.77850     4.33983    -0.73626
H      0.22324     6.12658    -0.65714
H     -0.60519     3.46629    -1.13605
H      1.12468     4.81078    -1.42397
H     -0.21352     5.59703    -2.28692
C      1.23363     1.70775    -0.73788
O     -0.04175     1.76468    -1.36072
H      1.27398     2.32904     0.15845
H     -0.67638     1.31457    -0.76167
H      1.51781     0.68922    -0.47394
H      1.97426     2.08779    -1.44245
C      3.49403    -2.55055     0.30788
O      2.33871    -1.74774     0.12147
H      3.93280    -2.79409    -0.66173
H      1.62687    -2.13079     0.66352
H      4.23582    -2.00883     0.89780
H      3.24608    -3.48291     0.81677
C     -2.87276    -2.89332     0.37246
O     -1.65111    -3.51350    -0.01627
H     -3.69291    -3.24399    -0.25320
H     -1.47358    -3.24203    -0.94839
H     -3.08964    -3.16699     1.40391
H     -2.81213    -1.80693     0.30070
C     -2.64919     1.77851     0.90719
O     -1.81144     0.75779     0.37642
H     -2.18876     2.25967     1.76973
H     -1.40162     0.28698     1.13159
H     -2.81973     2.53236     0.13914
H     -3.61788     1.36653     1.20102
C      0.67869    -4.13397     2.31140
O      0.34274    -2.99569     1.53958
H      1.04598    -4.93257     1.66477
H     -0.41232    -3.25868     0.94250
H      1.45855    -3.85629     3.01842
H     -0.18833    -4.49805     2.86334
C      1.88128    -0.79287    -3.28254
O      1.54698    -1.91813    -2.48980
H      1.31767     0.09222    -2.98472
H      1.86839    -1.76470    -1.58095
H      2.94982    -0.57524    -3.22332
H      1.64158    -1.02567    -4.31849
C     -1.65883    -1.32329    -2.74725
O     -1.03542    -2.55934    -2.43128
H     -2.69175    -1.51563    -3.03002
H     -0.07119    -2.40183    -2.50550
H     -1.64852    -0.63717    -1.89953
H     -1.15670    -0.83534    -3.58196
C      0.62080     0.34579     2.75112
O     -0.51442    -0.44009     2.38847
H      0.85320     0.20874     3.80836
H     -0.22328    -1.35400     2.23960
H      1.49495     0.06589     2.15915
H      0.40176     1.39842     2.57416
C      0.37633     5.21578     2.38693
O     -0.15720     3.98099     1.96197
H      0.57826     5.16071     3.45638
H     -0.47391     4.09705     1.05175
H      1.31459     5.44928     1.87434
H     -0.31933     6.04167     2.21180
