 48
-926.4780626446632
C      0.51995    -2.84020     0.51735
O      0.04496    -1.58767     0.98945
H      1.34814    -3.16703     1.14727
H     -0.82912    -1.44417     0.57316
H     -0.26471    -3.59689     0.56274
H      0.86848    -2.75131    -0.51116
C      1.23853     2.51514    -0.99214
O      0.18475     1.55862    -1.04396
H      1.77242     2.51003    -1.94175
H     -0.38782     1.72419    -0.24531
H      0.83638     3.51385    -0.83019
H      1.92698     2.26562    -0.18581
C     -3.61293    -1.90986    -0.31647
O     -2.26638    -1.47725    -0.33539
H     -3.84101    -2.51645    -1.19459
H     -2.14394    -0.90205    -1.12453
H     -3.77060    -2.51001     0.57685
H     -4.29439    -1.05764    -0.29537
C     -1.45353    -0.47951    -3.58132
O     -1.84345     0.15694    -2.36700
H     -2.26620    -1.13339    -3.89446
H     -1.11905     0.73318    -2.06397
H     -1.28258     0.25860    -4.36641
H     -0.54958    -1.06946    -3.43717
C      2.75403    -0.35300    -2.40102
O      1.46936    -0.74856    -1.96629
H      3.26535     0.27432    -1.66487
H      1.05034     0.00251    -1.51598
H      3.35451    -1.24762    -2.56130
H      2.70208     0.19293    -3.34671
C      0.33537     0.75349     3.86694
O      0.73049     1.71660     2.89820
H     -0.52929     1.13670     4.40790
H      1.39582     1.28966     2.32927
H      0.06883    -0.19128     3.38925
H      1.13970     0.57233     4.58072
C     -2.33864     1.28209     1.37619
O     -1.20518     2.08193     1.06289
H     -2.05523     0.30352     1.76468
H     -0.58085     2.05681     1.82052
H     -2.96062     1.78942     2.11443
H     -2.92832     1.14186     0.47357
C      3.32292    -0.72281     1.08678
O      2.16398     0.06725     1.27212
H      3.49981    -1.36716     1.95065
H      1.38238    -0.49123     1.07688
H      3.24050    -1.33804     0.19098
H      4.17679    -0.05654     0.97668
