 36
-694.8545866216842
C     -1.05769     1.28296    -3.13076
O     -0.36826     1.69585    -1.95702
H     -1.97379     0.74947    -2.87617
H     -1.02900     1.71210    -1.21974
H     -1.30708     2.15037    -3.74162
H     -0.41562     0.62067    -3.71417
C      2.14548    -0.76260     2.31083
O      1.44318     0.38385     1.87037
H      2.19633    -0.73047     3.39907
H      1.42866     0.38114     0.90373
H      1.64801    -1.68952     2.01700
H      3.16806    -0.78507     1.92281
C      2.72648     0.45519    -1.53810
O      1.47000     0.17678    -0.94584
H      3.50281    -0.05626    -0.97131
H      0.78598     0.77546    -1.35582
H      2.74671     0.10138    -2.57017
H      2.92672     1.52671    -1.52488
C     -0.15430    -2.95617    -1.25522
O      0.35129    -2.21567    -0.15422
H     -0.80605    -3.73837    -0.87035
H      0.87131    -1.46808    -0.49954
H     -0.73173    -2.31870    -1.93025
H      0.65654    -3.42450    -1.81611
C     -1.37564     2.30194     1.18083
O     -1.89469     1.44896     0.16467
H     -0.68205     1.76565     1.82409
H     -1.86301     0.53005     0.51185
H     -0.84939     3.13261     0.70993
H     -2.19284     2.70878     1.77940
C     -1.54234    -1.08121     2.58055
O     -1.65878    -0.99656     1.16917
H     -0.63073    -0.59391     2.92295
H     -0.93679    -1.51925     0.76844
H     -2.40469    -0.59160     3.03183
H     -1.53765    -2.12302     2.90752
