 60
-1158.0918536101228
C      0.01830    -1.60970    -3.93380
O     -0.40857    -1.03809    -2.71073
H      0.29732    -0.83181    -4.64739
H      0.36414    -0.56243    -2.33834
H      0.87776    -2.26591    -3.78149
H     -0.79921    -2.19239    -4.35448
C      3.32334     4.59994    -3.03011
O      2.15264     4.26893    -2.31385
H      3.95837     3.72283    -3.19653
H      2.39168     3.98703    -1.42126
H      3.02386     4.98960    -4.00251
H      3.91781     5.36290    -2.51885
C      2.66845     3.81657     1.54301
O      2.35546     3.15750     0.32466
H      3.72811     3.67534     1.75268
H      1.43380     2.85269     0.38621
H      2.45832     4.88653     1.47562
H      2.09355     3.39340     2.37002
C     -3.28246    -2.26949    -1.02728
O     -2.13223    -1.49352    -0.71807
H     -3.62683    -2.75217    -0.11713
H     -1.57036    -1.40094    -1.51473
H     -4.07854    -1.63849    -1.43083
H     -3.03540    -3.03824    -1.76001
C      1.55015    -0.36898     1.84050
O      0.42157    -0.74204     2.61279
H      1.50445    -0.75677     0.82141
H     -0.36513    -0.35166     2.19511
H      1.66007     0.71315     1.79717
H      2.43625    -0.77913     2.32132
C     -3.35743    -4.01794     3.44754
O     -2.97395    -3.33058     2.27182
H     -3.41957    -5.09689     3.27701
H     -2.00159    -3.34337     2.22112
H     -2.65661    -3.84246     4.26814
H     -4.34122    -3.66428     3.75852
C     -2.87880     0.16692     2.06383
O     -1.74738     0.17093     1.19920
H     -2.93797    -0.76840     2.61608
H     -1.91688    -0.50301     0.48373
H     -2.78441     0.99885     2.75808
H     -3.79411     0.28926     1.48726
C      2.55802     0.97709    -2.42034
O      1.58392     0.31169    -1.62125
H      3.10515     0.21510    -2.97123
H      1.22837     0.93480    -0.97338
H      2.09392     1.66834    -3.12429
H      3.25993     1.52620    -1.79544
C      0.41674    -3.67048     1.10288
O     -0.24140    -3.35013     2.31474
H     -0.08134    -3.20709     0.24890
H      0.06692    -2.46266     2.57954
H      1.45667    -3.33872     1.11961
H      0.41117    -4.75032     0.97507
C     -0.82859     2.56607    -1.04096
O     -0.10160     2.05771     0.08556
H     -1.80436     2.93710    -0.72650
H     -0.69939     1.46260     0.57718
H     -0.25849     3.38713    -1.47292
H     -0.96728     1.79025    -1.79574
