 36
-694.8494152601883
C     -2.68270     2.46509     0.08586
O     -2.61616     1.30530     0.88683
H     -2.41675     3.32688     0.69970
H     -2.57147     0.54272     0.29009
H     -1.97972     2.41986    -0.75307
H     -3.68837     2.62640    -0.31054
C      0.75568    -2.78352    -1.36940
O      0.32660    -1.51869    -0.90016
H      1.84201    -2.80943    -1.45404
H      0.72699    -1.36826    -0.00519
H      0.43749    -3.57879    -0.69345
H      0.32035    -2.95392    -2.35067
C      0.17804    -0.84471     2.37464
O      1.27462    -0.86106     1.46223
H     -0.67270    -0.27728     1.99272
H      1.62023     0.05852     1.39386
H     -0.13378    -1.87501     2.54145
H      0.48217    -0.42494     3.33259
C      2.85825     0.32398    -2.02758
O      1.62984     0.94736    -1.66854
H      2.95373    -0.65551    -1.55810
H      0.94605     0.26403    -1.66554
H      2.92868     0.21312    -3.11027
H      3.67594     0.95774    -1.68704
C     -2.84883    -2.10582    -0.08344
O     -2.29974    -0.94390    -0.67317
H     -3.88129    -1.90231     0.19657
H     -1.35491    -1.12003    -0.82625
H     -2.84156    -2.94636    -0.78176
H     -2.29696    -2.39571     0.81439
C      0.92320     2.61730     1.29521
O      1.92265     1.68833     0.89954
H      1.02878     3.55680     0.75112
H      1.86377     1.59172    -0.07224
H     -0.08125     2.22728     1.12781
H      1.05128     2.81850     2.35665
