 24
-463.22941329553555
C      2.71689     0.79504     1.09936
O      1.92769     0.61182    -0.06714
H      3.03567     1.83493     1.13402
H      1.64074    -0.32533    -0.08005
H      2.14754     0.56701     2.00391
H      3.60225     0.15846     1.07213
C     -0.90303     2.25163    -1.11248
O     -0.51531     1.71703     0.14144
H     -1.93213     2.59752    -1.03556
H      0.43220     1.46981     0.06982
H     -0.27282     3.09735    -1.38820
H     -0.84195     1.49695    -1.90176
C     -3.02249    -0.67917     0.32502
O     -1.64925    -0.65414     0.67090
H     -3.45466    -1.60746     0.69230
H     -1.33242     0.26693     0.55392
H     -3.55878     0.15757     0.77818
H     -3.15408    -0.63138    -0.75917
C      0.58877    -2.44923    -1.21009
O      0.73454    -1.81050     0.04739
H      1.55847    -2.84165    -1.50712
H     -0.15451    -1.54813     0.35405
H     -0.11897    -3.27730    -1.14762
H      0.24221    -1.74770    -1.97452
