 24
-463.2307394307754
C      2.36012     0.66972    -1.43378
O      1.80446     0.56789    -0.13254
H      3.20624    -0.00894    -1.54985
H      1.49560    -0.35663    -0.01548
H      1.61821     0.43897    -2.20346
H      2.70971     1.69013    -1.57748
C     -0.66664     2.36316     1.43652
O     -0.57022     1.80581     0.13571
H     -1.68566     2.71505     1.58379
H      0.35372     1.49577     0.01712
H     -0.43446     1.62162     2.20604
H      0.01410     3.20804     1.54921
C     -2.36165    -0.66942    -1.43525
O     -1.80951    -0.56930    -0.13235
H     -1.61883    -0.43447    -2.20270
H     -1.50143     0.35520    -0.01336
H     -2.70801    -1.69035    -1.58267
H     -3.20947     0.00687    -1.55188
C      0.66811    -2.36394     1.43339
O      0.56625    -1.80828     0.13212
H      0.43993    -1.62134     2.20324
H     -0.35792    -1.49825     0.01563
H     -0.01190    -3.20890     1.55067
H      1.68795    -2.71556     1.57579
