 30
-579.0321929485386
C      2.18305     2.13678    -1.78387
O      1.68234     1.31134    -0.75751
H      3.17135     2.49204    -1.49382
H      0.80267     0.99792    -1.02610
H      2.28168     1.60093    -2.73231
H      1.54459     3.01010    -1.95210
C     -1.15880     0.47635    -2.94621
O     -0.81362     0.45109    -1.57720
H     -1.07895     1.50025    -3.30788
H     -0.93763    -0.47195    -1.26025
H     -0.49087    -0.15923    -3.53297
H     -2.18615     0.13644    -3.09734
C      1.86270    -1.45690     1.49893
O      0.44434    -1.42279     1.61386
H      2.20189    -0.75202     0.73934
H      0.19793    -0.55301     1.97833
H      2.32783    -1.20874     2.45400
H      2.16246    -2.46540     1.21947
C     -0.26788     2.08093     1.73704
O     -0.38861     0.95811     2.62167
H     -0.72862     1.86395     0.77465
H     -1.28748     0.91721     2.94859
H     -0.72055     2.97125     2.17565
H      0.79266     2.26093     1.58843
C     -2.28139    -2.42739    -0.07624
O     -1.01827    -1.96367    -0.51769
H     -2.74758    -1.71074     0.60523
H     -0.44290    -1.87717     0.27812
H     -2.92543    -2.55797    -0.94490
H     -2.18707    -3.38721     0.43424
