 36
-694.8558808585317
C     -2.22932     1.90442    -1.44623
O     -0.92945     1.41806    -1.75532
H     -2.15455     2.97307    -1.24100
H     -0.94882     0.44442    -1.75491
H     -2.90540     1.77285    -2.29228
H     -2.63775     1.40556    -0.56917
C      1.06340    -2.58828     1.01870
O      1.43689    -1.84816    -0.13533
H      1.63312    -3.51662     1.06464
H      1.90399    -1.04182     0.17543
H      1.24482    -2.01436     1.92807
H      0.00146    -2.83765     0.97231
C      2.58670     0.66544     2.18608
O      2.43348     0.43350     0.79987
H      1.62047     0.65756     2.70048
H      1.95095     1.20614     0.42768
H      3.21270    -0.11935     2.60833
H      3.07050     1.62549     2.37435
C     -0.68917    -1.99188    -2.84454
O     -0.69011    -1.30618    -1.59935
H     -1.51997    -2.69564    -2.87856
H      0.13769    -1.54229    -1.11332
H     -0.79449    -1.27220    -3.65724
H      0.24721    -2.53289    -2.97522
C      0.22299     3.16952     0.81295
O      0.92911     2.39408    -0.13526
H      0.05214     4.17829     0.43282
H      0.27697     2.08968    -0.80406
H     -0.74250     2.72358     1.05796
H      0.81002     3.24248     1.72875
C     -1.58412    -0.27526     1.58595
O     -2.45679    -0.79439     0.60885
H     -1.33706    -1.03341     2.33394
H     -1.93310    -1.09661    -0.14084
H     -0.65245     0.11391     1.17250
H     -2.09422     0.53857     2.10338
