 48
-926.4795264427808
C     -1.14857    -1.02612     3.14783
O     -1.22509    -1.75957     1.93166
H     -2.10717    -1.03424     3.66827
H     -2.04602    -1.47933     1.47275
H     -0.40577    -1.49805     3.79087
H     -0.85681     0.01284     2.96986
C     -0.92986     1.78493    -1.39988
O     -1.21756     1.01311    -0.23684
H      0.14364     1.83811    -1.57587
H     -0.52385     1.18537     0.43495
H     -1.40469     1.30987    -2.25815
H     -1.33047     2.79447    -1.29811
C     -4.20143    -0.93260    -0.38974
O     -3.23505    -0.61542     0.60286
H     -4.67989    -1.86821    -0.10498
H     -2.65620     0.08740     0.25712
H     -4.96493    -0.15462    -0.44662
H     -3.73176    -1.05378    -1.36580
C      1.65453    -0.65731    -2.92609
O      1.99905    -0.17554    -1.63460
H      1.33455    -1.69638    -2.88022
H      1.58770    -0.74290    -0.94953
H      0.83956    -0.06724    -3.34992
H      2.52615    -0.57544    -3.57377
C     -1.30832    -2.72830    -1.44595
O     -1.23920    -1.43150    -2.02610
H     -1.65105    -3.40912    -2.22397
H     -0.98586    -0.79591    -1.34843
H     -0.33208    -3.06666    -1.09554
H     -2.01594    -2.76226    -0.61774
C      2.03719    -1.18516     1.50395
O      1.06114    -1.47310     0.50754
H      2.43501    -2.11008     1.92816
H      0.21428    -1.65562     0.96584
H      2.85777    -0.63124     1.04977
H      1.62066    -0.57361     2.30310
C      0.27781     3.09826     1.95044
O      0.71595     1.84488     1.45080
H     -0.55149     2.92102     2.63497
H      1.51697     1.97868     0.89951
H      1.07555     3.60611     2.49442
H     -0.07024     3.75022     1.14506
C      4.12966     2.18531    -0.34170
O      2.72085     2.04551    -0.35479
H      4.59962     1.33990     0.16782
H      2.50005     1.27635    -0.92081
H      4.52418     2.24120    -1.35842
H      4.38690     3.10236     0.18597
