 60
-1158.0919543767034
C      0.85250    -4.54628    -1.31755
O      0.89912    -4.16384     0.05203
H      1.44471    -3.86669    -1.92824
H      1.83405    -4.01051     0.28328
H      1.22204    -5.56399    -1.44420
H     -0.17990    -4.50693    -1.66281
C     -0.88586     2.35062     3.65566
O     -1.75360     1.92521     2.61727
H     -0.58545     1.51297     4.28782
H     -1.28067     1.21399     2.13810
H      0.01058     2.82314     3.24982
H     -1.40827     3.07177     4.28311
C      2.10374    -0.02882    -2.10873
O      1.71950    -1.31896    -1.68658
H      2.42019    -0.02610    -3.15502
H      0.77732    -1.43824    -1.90554
H      1.29499     0.69701    -1.99197
H      2.95111     0.31570    -1.50954
C     -1.12652    -1.20692    -3.93214
O     -0.87504    -1.26832    -2.54366
H     -0.74693    -2.12253    -4.38227
H     -1.14814    -0.42426    -2.12559
H     -2.19774    -1.14095    -4.13604
H     -0.62707    -0.35364    -4.39716
C      1.12576     0.28865     1.34620
O     -0.28994     0.16085     1.25276
H      1.60457    -0.26178     0.54121
H     -0.49351    -0.80999     1.10446
H      1.40037     1.33567     1.28143
H      1.47598    -0.11475     2.29551
C     -2.57091     5.17466     1.74850
O     -2.16393     4.04006     1.01043
H     -3.27429     4.90603     2.54013
H     -2.17545     3.26948     1.61086
H     -1.71256     5.67724     2.20352
H     -3.06382     5.87353     1.07384
C     -2.06689    -2.58560     0.20687
O     -0.79646    -2.28160     0.76556
H     -2.49150    -3.46953     0.68409
H     -0.16226    -2.99747     0.51910
H     -2.74276    -1.74893     0.37868
H     -1.99811    -2.75211    -0.86491
C      1.02915     3.45136    -0.75542
O      0.63040     3.51628     0.59707
H      1.23289     4.44438    -1.16573
H     -0.30558     3.75719     0.65376
H      1.95502     2.87550    -0.82266
H      0.27951     2.96523    -1.38262
C      3.91044    -2.33915     0.72984
O      3.42185    -3.67698     0.84071
H      3.52446    -1.92052    -0.19396
H      3.71945    -4.05390     1.66912
H      3.55991    -1.73246     1.56632
H      4.99975    -2.32706     0.70980
C     -2.56767     1.63841    -1.05865
O     -1.30245     0.99771    -1.17293
H     -2.93279     1.63384    -0.03125
H     -0.90236     0.87698    -0.29063
H     -2.49503     2.67190    -1.39718
H     -3.28742     1.11451    -1.69127
