 54
-1042.289762308258
C      1.06414    -2.37438     1.16540
O      2.04021    -1.39493     0.85741
H      1.52240    -3.35806     1.06677
H      1.63327    -0.52488     0.95588
H      0.68931    -2.27584     2.18644
H      0.21461    -2.32980     0.48230
C     -2.18957    -1.14029    -2.64615
O     -1.37751    -1.26845    -1.48979
H     -1.89796    -0.26702    -3.23109
H     -0.44748    -1.06602    -1.77366
H     -2.09696    -2.02654    -3.27439
H     -3.23308    -1.02589    -2.35002
C      1.97870    -1.77361    -2.38562
O      1.00790    -0.73335    -2.37959
H      2.51826    -1.81415    -1.44308
H      1.47321     0.11197    -2.19146
H      1.46621    -2.72206    -2.54514
H      2.68180    -1.63434    -3.20723
C      3.49386     1.57218    -2.74166
O      2.36935     1.48679    -1.87889
H      3.73107     2.61214    -2.97363
H      2.66974     1.70690    -0.96931
H      4.37181     1.09885    -2.29622
H      3.26043     1.05609    -3.67260
C     -3.05909    -2.64250     1.12197
O     -2.62426    -1.32690     0.81996
H     -3.84982    -2.95096     0.43739
H     -2.13134    -1.34880    -0.03592
H     -2.22980    -3.34825     1.05304
H     -3.44791    -2.65498     2.13864
C     -3.78191     1.63747    -0.79571
O     -3.83174     1.28824     0.57192
H     -4.62555     1.21276    -1.34753
H     -3.55836     0.36783     0.66051
H     -3.83936     2.72262    -0.87445
H     -2.85324     1.30852    -1.27240
C     -0.14688     1.67654     0.35927
O      0.66983     1.08303     1.38045
H     -1.13989     1.89821     0.74091
H      0.05476     0.67635     2.03161
H      0.32668     2.59553     0.02280
H     -0.23414     1.00913    -0.49536
C      4.14275     1.23796     1.23459
O      3.06767     1.96692     0.65260
H      5.07629     1.68683     0.90279
H      2.25762     1.72689     1.13946
H      4.09536     1.28887     2.32292
H      4.11337     0.19100     0.92903
C     -2.11709     0.79716     3.49651
O     -1.25996    -0.07113     2.76741
H     -1.52379     1.30984     4.25160
H     -1.80294    -0.54664     2.10982
H     -2.58283     1.53648     2.84500
H     -2.90345     0.23123     4.00065
