 48
-926.4806664795655
C     -0.25569    -4.08031    -1.53249
O     -1.16462    -3.64739    -0.53252
H      0.39253    -3.26601    -1.86506
H     -1.57821    -2.81778    -0.83752
H      0.36421    -4.87074    -1.11310
H     -0.78950    -4.48027    -2.39629
C     -1.50000     2.10102    -0.22452
O     -1.41146     0.83606     0.41333
H     -2.54845     2.37425    -0.34194
H     -0.71850     0.87045     1.09778
H     -1.00890     2.87372     0.36174
H     -1.03332     2.07137    -1.20855
C     -0.77574    -1.92081     2.36317
O      0.16333    -2.57239     1.51798
H     -0.28360    -1.09136     2.86956
H     -0.34196    -3.12357     0.88270
H     -1.61584    -1.53410     1.78622
H     -1.15464    -2.60956     3.11859
C      0.61555     0.47192    -2.94187
O      1.25451     0.91068    -1.75617
H      0.43375     1.33648    -3.57950
H      1.33537     0.13585    -1.15149
H      1.24677    -0.23236    -3.48637
H     -0.33831    -0.01039    -2.72049
C     -3.24913    -0.69995    -1.86334
O     -2.14386    -1.20353    -1.14318
H     -3.06474     0.32368    -2.19596
H     -1.83331    -0.50774    -0.52890
H     -3.41404    -1.32298    -2.74111
H     -4.15237    -0.70454    -1.24935
C      0.22844     2.51720     3.23305
O      0.56544     1.61677     2.19351
H      1.08870     2.70630     3.87775
H      1.13837     2.07851     1.54944
H     -0.12912     3.46992     2.83305
H     -0.56398     2.07070     3.83161
C      1.74061     4.14131    -0.44050
O      1.80319     2.82097     0.06270
H      2.61111     4.36931    -1.05926
H      1.65523     2.19924    -0.68033
H      0.83807     4.29320    -1.03951
H      1.71896     4.83263     0.40127
C      2.73893    -0.52464     0.83949
O      1.66750    -0.97791     0.01783
H      3.50144    -1.29970     0.93628
H      1.11512    -1.58905     0.55822
H      3.19139     0.35092     0.37543
H      2.38187    -0.24735     1.83111
