 36
-694.8568305706915
C      0.67921     3.74180    -0.16201
O      0.64036     2.37517    -0.52954
H      0.62099     3.86371     0.92292
H     -0.24209     2.02509    -0.27671
H      1.61665     4.16934    -0.51230
H     -0.14491     4.29198    -0.61751
C      0.06142    -0.97316    -2.29111
O     -0.61721    -1.87877    -1.42501
H     -0.27795    -1.14641    -3.31028
H     -0.06390    -1.95928    -0.62226
H     -0.14440     0.06516    -2.02672
H      1.13803    -1.13172    -2.24221
C      2.08610    -2.83264     0.47851
O      1.10009    -1.82904     0.63988
H      2.74777    -2.87648     1.34603
H      1.54834    -0.95657     0.63119
H      1.58894    -3.79544     0.37182
H      2.69121    -2.65191    -0.41354
C      3.01718     1.18931     1.51712
O      2.30119     0.56773     0.46888
H      3.61889     0.43790     2.02647
H      1.75600     1.25719     0.02820
H      3.68327     1.96174     1.12812
H      2.34202     1.64937     2.24288
C     -3.71513    -1.64564    -0.03021
O     -2.93475    -0.75317    -0.80372
H     -3.12976    -2.08685     0.77994
H     -2.14989    -1.25775    -1.11723
H     -4.54949    -1.09468     0.39829
H     -4.11093    -2.45140    -0.64994
C     -1.20332     0.54598     1.58046
O     -1.58492     1.21358     0.38228
H     -1.97043     0.67318     2.34687
H     -2.18036     0.60245    -0.10405
H     -1.04511    -0.51764     1.41164
H     -0.27426     0.97482     1.95091
