 36
-694.8482695272621
C     -0.45621     2.23400    -0.94109
O      0.70512     1.76357    -1.62310
H     -1.33669     1.93973    -1.50744
H      1.45540     1.84606    -1.00802
H     -0.53663     1.81855     0.06318
H     -0.43987     3.32331    -0.87475
C      3.72212     0.77728    -0.45039
O      2.64874     1.33973     0.29628
H      3.44575    -0.18946    -0.87628
H      2.20036     0.61588     0.75238
H      3.96447     1.45943    -1.26436
H      4.60665     0.65251     0.17601
C      1.61097    -2.29813     1.14889
O      1.02337    -1.05962     0.79038
H      1.79236    -2.30614     2.22212
H      0.80835    -1.08435    -0.18256
H      0.95385    -3.13278     0.89554
H      2.56121    -2.43180     0.62989
C     -0.66520    -1.46796    -2.33222
O      0.53033    -0.93354    -1.76464
H     -0.53731    -1.61867    -3.40436
H      0.55578     0.03404    -1.93134
H     -0.85979    -2.43566    -1.86975
H     -1.51433    -0.81473    -2.14622
C     -1.51546    -0.96768     3.11408
O     -1.19046    -0.12219     2.03050
H     -2.48912    -0.67134     3.50106
H     -0.34013    -0.42291     1.66408
H     -1.56903    -2.01477     2.80448
H     -0.78250    -0.87840     3.92023
C     -3.87480     0.94970    -0.00066
O     -2.81825     0.03686    -0.21643
H     -4.43513     0.71680     0.90950
H     -2.29476    -0.01517     0.59912
H     -3.50980     1.97845     0.08077
H     -4.55561     0.89413    -0.84945
