 36
-694.8449708733449
C     -0.06666     0.36635     2.41667
O      0.21639    -0.78697     1.62896
H     -0.75523     0.12148     3.22495
H     -0.60980    -1.01887     1.15219
H      0.86729     0.71323     2.85596
H     -0.49508     1.16005     1.80556
C      2.06679     1.40417    -0.61001
O      1.58836     0.07456    -0.79987
H      2.92793     1.41529     0.05917
H      1.36823    -0.29586     0.07116
H      2.38176     1.78364    -1.57926
H      1.28947     2.05102    -0.20319
C      3.61670    -1.79058     1.52660
O      2.59317    -2.42500     2.25905
H      3.77316    -0.75999     1.86174
H      1.76657    -1.96942     2.07356
H      4.54136    -2.34180     1.68658
H      3.40823    -1.77729     0.45409
C     -0.73796    -0.54724    -3.42145
O     -0.69984     0.07817    -2.14857
H     -0.32484     0.11136    -4.18675
H      0.21914     0.02089    -1.80317
H     -0.17329    -1.47999    -3.40789
H     -1.77663    -0.76238    -3.66240
C     -3.19132    -0.49904     0.61591
O     -1.98913    -1.14771     0.20104
H     -3.98186    -0.64856    -0.11992
H     -1.78200    -0.87332    -0.70182
H     -3.50202    -0.95104     1.55450
H     -3.02702     0.56694     0.76071
C     -1.95566     3.29151    -1.23776
O     -1.43661     2.23104    -0.45242
H     -2.90828     3.01783    -1.70168
H     -1.20998     1.49841    -1.04323
H     -2.12196     4.14737    -0.58468
H     -1.25606     3.58660    -2.02603
