 54
-1042.2873618807314
C      2.99873    -2.91682    -0.21547
O      3.05032    -3.02137     1.19629
H      2.50264    -2.00121    -0.54540
H      3.45458    -2.19571     1.53444
H      3.99980    -2.94084    -0.64792
H      2.44613    -3.77252    -0.60264
C     -3.83877     0.23582    -3.41919
O     -2.88732     0.17332    -2.37307
H     -4.55600    -0.58309    -3.34294
H     -3.33424     0.45137    -1.53884
H     -4.38271     1.18346    -3.40488
H     -3.31071     0.14731    -4.36786
C     -0.58477    -1.63590    -0.98469
O     -0.23280    -1.00737     0.24213
H     -1.64358    -1.88711    -0.99484
H     -0.09092    -1.71787     0.91395
H     -0.39008    -0.95411    -1.81082
H     -0.00859    -2.54917    -1.13407
C      4.95945    -0.04152     1.25915
O      3.81515    -0.52945     1.92842
H      5.73157    -0.81101     1.25385
H      3.04552    -0.04499     1.56247
H      4.72868     0.22447     0.22571
H      5.35879     0.83991     1.76517
C      2.11890     1.37208    -0.50476
O      1.79094     0.63479     0.65831
H      1.27639     1.95475    -0.86822
H      1.01362     0.06728     0.45430
H      2.93872     2.05047    -0.27061
H      2.44912     0.70633    -1.30586
C     -3.74541     0.19098     0.98494
O     -3.83343     1.12875    -0.07692
H     -3.97216     0.66644     1.93911
H     -3.18267     1.84078     0.10001
H     -4.48260    -0.58919     0.80892
H     -2.75602    -0.26551     1.04268
C     -0.88908     2.43519     1.30752
O     -1.69186     2.74238     0.17745
H     -0.73851     1.36118     1.42185
H     -1.21567     2.47636    -0.62901
H      0.08645     2.91674     1.24711
H     -1.40302     2.81291     2.18861
C      0.62228    -2.09173     3.31054
O      0.49365    -2.76733     2.06126
H      0.69273    -2.80951     4.12778
H      1.39642    -3.02853     1.78193
H      1.50443    -1.44943     3.31882
H     -0.26413    -1.47657     3.46823
C     -1.09207     2.84437    -3.20646
O     -0.76874     1.80996    -2.29004
H     -2.04304     2.64279    -3.70207
H     -1.45736     1.11903    -2.38331
H     -1.17288     3.79955    -2.68087
H     -0.30794     2.93535    -3.96090
