 36
-694.8526102075809
C     -1.50159     0.12178    -1.36562
O     -0.20121     0.47716    -1.82557
H     -2.05270    -0.30438    -2.20350
H      0.19555     1.06428    -1.15707
H     -1.45089    -0.61693    -0.56304
H     -2.04797     0.99229    -1.00701
C      2.19438     2.26887     0.04137
O      0.85646     1.85776     0.27496
H      2.18260     3.09740    -0.66216
H      0.89186     1.11894     0.93613
H      2.65671     2.60114     0.97057
H      2.78365     1.45036    -0.37582
C     -0.34432    -0.28429     2.68672
O      0.78770    -0.23486     1.83072
H     -0.25679     0.50667     3.42859
H      0.79724    -1.05516     1.28566
H     -1.27375    -0.13892     2.13151
H     -0.39195    -1.23753     3.21447
C      0.49195    -2.56901    -3.27561
O      1.11236    -1.80863    -2.25619
H      0.70726    -3.62393    -3.10915
H      0.69006    -0.92342    -2.24862
H     -0.59109    -2.42991    -3.27267
H      0.87462    -2.29036    -4.25874
C     -1.83519     3.44539     2.14635
O     -1.85957     2.47216     1.11799
H     -1.15161     3.15991     2.95171
H     -0.96869     2.40835     0.74905
H     -1.53602     4.42837     1.77146
H     -2.84001     3.52625     2.55975
C     -0.43651    -3.19486     0.30299
O      0.73981    -2.40580     0.29913
H     -1.16711    -2.77426     0.99790
H      0.98879    -2.24911    -0.63884
H     -0.88702    -3.23121    -0.68946
H     -0.20997    -4.21183     0.62523
