 42
-810.6694117029963
C     -3.28712     1.75108     1.92596
O     -2.20731     0.83956     1.88191
H     -4.19086     1.30824     1.50476
H     -2.17964     0.44599     0.98434
H     -3.48816     2.01025     2.96425
H     -3.05326     2.66715     1.37644
C      0.08514     1.16561     4.35212
O      0.10733     1.52335     2.98282
H     -0.16203     0.10963     4.48377
H     -0.77000     1.29406     2.60830
H      1.06910     1.35186     4.77847
H     -0.64586     1.76352     4.89946
C      2.33462    -1.10175    -3.75767
O      2.00992    -1.32848    -2.39607
H      2.34294    -0.03579    -3.98949
H      2.29828    -0.53888    -1.88520
H      3.31566    -1.51920    -3.99017
H      1.59142    -1.59059    -4.38889
C      1.18393     1.63640    -1.24450
O      2.36216     0.89318    -0.95920
H      1.37415     2.70533    -1.14515
H      2.32527     0.70023     0.00445
H      0.87772     1.44324    -2.27376
H      0.37012     1.35840    -0.57624
C     -2.61421     0.64673    -1.58803
O     -2.04897    -0.14700    -0.55913
H     -1.83609     1.14584    -2.16928
H     -1.46785    -0.80833    -0.99708
H     -3.21785     0.03998    -2.26446
H     -3.25285     1.40942    -1.14210
C      1.15154    -1.02956     1.40711
O      1.89806     0.17301     1.56312
H      1.44923    -1.51820     0.48118
H      1.33771     0.76428     2.10854
H      1.34608    -1.71609     2.23317
H      0.08028    -0.82387     1.36182
C     -0.60449    -3.26635    -1.42375
O     -0.50752    -1.89806    -1.78098
H     -0.21788    -3.90351    -2.22048
H      0.42341    -1.71908    -2.04732
H     -0.04575    -3.47622    -0.50897
H     -1.65255    -3.51301    -1.25975
