 42
-810.669172795797
C     -2.04983    -1.08611     1.65926
O     -0.91982    -0.79548     2.47292
H     -1.86550    -2.01751     1.12099
H     -0.88999     0.18405     2.54897
H     -2.94180    -1.21058     2.27382
H     -2.22603    -0.29191     0.93090
C     -1.82869     3.59845    -0.65318
O     -1.49556     2.26949    -0.30414
H     -2.70812     3.89981    -0.08553
H     -0.66294     2.04596    -0.76988
H     -1.01020     4.28640    -0.42579
H     -2.06035     3.67605    -1.71737
C      0.30790    -4.15166    -1.06886
O      1.12958    -2.99784    -1.02859
H     -0.15212    -4.23007    -2.05393
H      1.19094    -2.71225    -0.08905
H      0.89451    -5.05295    -0.88555
H     -0.48413    -4.08602    -0.31914
C      2.18260    -0.87900     1.26623
O      1.23851    -1.93454     1.40479
H      3.10050    -1.28717     0.84643
H      0.45475    -1.56575     1.87215
H      1.81082    -0.09638     0.59861
H      2.41908    -0.43781     2.23549
C     -1.10801    -1.01979    -2.29587
O      0.30535    -0.87266    -2.39672
H     -1.54237    -1.14772    -3.28766
H      0.70632    -1.66265    -1.97330
H     -1.36090    -1.88198    -1.67857
H     -1.54199    -0.12827    -1.83828
C      1.71636     2.26735    -2.27828
O      0.81317     1.54639    -1.45665
H      2.58616     2.56824    -1.69302
H      0.72480     0.63617    -1.82547
H      2.05139     1.65216    -3.11264
H      1.23050     3.16053    -2.67517
C      0.36892     2.43418     2.33621
O     -0.93210     1.86940     2.29551
H      0.86985     2.33861     1.37110
H     -1.27537     2.04398     1.39620
H      0.31748     3.49005     2.60422
H      0.95777     1.91740     3.09445
