 36
-694.8564615709703
C      0.53992     3.46786     0.62076
O      0.57396     2.05653     0.54904
H      1.45005     3.81670     1.10674
H     -0.28074     1.76689     0.16027
H      0.47759     3.91706    -0.37361
H     -0.31498     3.80639     1.20913
C      0.67805    -1.30985    -2.36408
O      1.59317    -1.68200    -1.33807
H      0.19275    -0.35917    -2.13386
H      2.05565    -0.86279    -1.06451
H      1.19020    -1.22530    -3.32336
H     -0.08620    -2.08351    -2.44588
C      3.66423     0.58896     0.49498
O      2.61327     0.64469    -0.44918
H      4.49415     0.03179     0.06342
H      1.90557     1.21199    -0.07881
H      4.01628     1.58968     0.75438
H      3.34282     0.08823     1.41211
C      0.59151    -1.70281     1.76323
O      0.02084    -2.44503     0.69258
H      1.59725    -2.06372     1.97957
H      0.63516    -2.33808    -0.06711
H      0.64416    -0.63539     1.53730
H     -0.01585    -1.84499     2.65663
C     -2.84703     1.98143    -0.71606
O     -1.66860     1.22395    -0.52405
H     -2.59262     2.89803    -1.24515
H     -1.92393     0.28816    -0.36450
H     -3.57120     1.42888    -1.31509
H     -3.30897     2.24091     0.24019
C     -3.14346    -1.32562     1.22945
O     -2.32282    -1.28939     0.07503
H     -4.16053    -1.06233     0.94526
H     -1.52252    -1.82555     0.26988
H     -3.15551    -2.32229     1.66993
H     -2.79346    -0.61585     1.98421
