 36
-694.8451697973057
C      0.55708     3.70317    -0.39558
O      0.90054     2.77109    -1.40919
H      1.46166     4.24803    -0.12422
H      0.21287     2.09621    -1.44586
H     -0.18220     4.42562    -0.75144
H      0.17368     3.20698     0.49730
C      2.77500     0.62103     0.31405
O      1.50572    -0.00059     0.51840
H      3.32704     0.56295     1.24953
H      0.94484     0.17745    -0.25660
H      3.33632     0.08874    -0.45587
H      2.65485     1.66217     0.02026
C      0.00517    -0.21996    -2.77326
O     -0.44463     0.30530    -1.53045
H     -0.84085    -0.46887    -3.41403
H     -1.12007    -0.32286    -1.18327
H      0.61232     0.53587    -3.26724
H      0.60876    -1.11921    -2.61955
C      0.57577    -3.39995     1.01167
O     -0.17548    -2.24126     1.34972
H      1.40218    -3.54742     1.70640
H      0.43568    -1.48926     1.39463
H     -0.08790    -4.26057     1.07226
H      0.97387    -3.32826    -0.00387
C     -2.58327    -2.67436    -1.15969
O     -1.98030    -1.55886    -0.52541
H     -3.32696    -2.30795    -1.86330
H     -1.42519    -1.88817     0.21196
H     -1.84291    -3.26806    -1.70176
H     -3.08119    -3.31421    -0.42935
C     -1.24259     1.02674     2.17493
O      0.06053     1.45140     2.52806
H     -1.96420     1.71517     2.61695
H      0.67321     1.03516     1.91430
H     -1.38919     1.02341     1.09116
H     -1.45070     0.02260     2.55128
