 36
-694.8506213722143
C      2.04826     3.15450     0.37510
O      1.22230     2.07221     0.76011
H      3.06778     2.94449     0.69068
H      0.29848     2.31001     0.52168
H      2.03695     3.29964    -0.70802
H      1.72384     4.08223     0.84975
C     -1.53943     3.27734    -1.21469
O     -1.26094     2.48168    -0.08204
H     -2.61287     3.34184    -1.39818
H     -1.75351     1.63640    -0.18108
H     -1.15782     4.28318    -1.04666
H     -1.06140     2.86353    -2.10736
C      2.04881    -2.68200     2.29267
O      2.36130    -2.84354     0.92111
H      2.62505    -1.87256     2.74839
H      2.32407    -1.96879     0.51743
H      0.98625    -2.47594     2.43909
H      2.29379    -3.61145     2.80367
C     -0.92313    -3.14490     0.11518
O     -0.86719    -1.76552     0.45003
H     -0.07407    -3.68210     0.53035
H      0.03726    -1.43859     0.30516
H     -1.84280    -3.55046     0.53058
H     -0.93858    -3.28690    -0.96895
C     -2.95683    -0.26516    -1.67796
O     -2.46193     0.14975    -0.42216
H     -2.14300    -0.43906    -2.38839
H     -1.94691    -0.60019    -0.04811
H     -3.53531    -1.18497    -1.58564
H     -3.60815     0.51135    -2.07605
C      1.27784    -0.08834    -1.55239
O      1.49949    -0.36547    -0.17459
H      2.12650     0.44629    -1.97587
H      1.46696     0.50074     0.29493
H      1.16234    -1.03201    -2.08468
H      0.37925     0.51394    -1.69060
