 36
-694.8495271250575
C      1.68341     0.99395     3.25949
O      0.28385     0.99607     3.03831
H      1.98280     2.01485     3.49310
H     -0.01921     0.08921     2.89578
H      1.96336     0.35247     4.10112
H      2.22612     0.66939     2.36981
C      1.93936     1.83937    -2.91628
O      1.51501     0.50029    -2.70955
H      1.83213     2.07244    -3.97318
H      1.67996     0.28216    -1.76763
H      1.33471     2.54181    -2.33568
H      2.98512     1.96317    -2.63294
C      1.79739    -1.41056     0.20003
O      1.55809    -0.02941    -0.06967
H      2.86044    -1.59263     0.05701
H      0.67693     0.19407     0.26137
H      1.52117    -1.66862     1.22001
H      1.23920    -2.04851    -0.48612
C     -2.09164    -1.98526     2.69949
O     -0.93547    -1.43891     2.08666
H     -2.71439    -2.51036     1.97165
H     -1.21720    -0.97735     1.27588
H     -1.76957    -2.69517     3.45924
H     -2.69135    -1.20595     3.17903
C     -1.46801    -1.07539    -3.35976
O     -1.13713     0.14115    -2.70311
H     -0.84892    -1.90010    -2.99794
H     -0.17866     0.30801    -2.85257
H     -2.51268    -1.30289    -3.15820
H     -1.33258    -0.98121    -4.43746
C     -1.74235     1.44959     0.33226
O     -1.38459     0.12755    -0.06750
H     -2.75388     1.68186     0.00172
H     -1.35217     0.11100    -1.05509
H     -1.69365     1.51036     1.41565
H     -1.05236     2.18165    -0.08985
