 24
-463.2293166081273
C      1.65370     0.85953     1.94267
O      0.43968     1.20535     1.29918
H      2.08479    -0.04986     1.51444
H      0.64880     1.37679     0.35550
H      2.38380     1.66503     1.85977
H      1.44780     0.68740     2.99770
C      0.04928     2.28863    -2.01346
O      0.80464     1.27432    -1.36695
H      0.54631     3.24191    -1.84739
H      0.37898     0.41786    -1.57921
H     -0.00517     2.10512    -3.08715
H     -0.96701     2.34262    -1.61523
C     -1.26480    -1.69578     2.16820
O     -1.32240    -0.80367     1.07034
H     -1.37309    -1.16390     3.11565
H     -0.74675    -0.03663     1.27646
H     -2.08173    -2.40793     2.07674
H     -0.31758    -2.24185     2.18182
C      0.20911    -2.22090    -1.59712
O     -0.57931    -1.04500    -1.52663
H      1.12633    -2.12156    -1.00893
H     -0.99618    -1.02557    -0.64279
H     -0.34560    -3.08510    -1.22867
H      0.47445    -2.39386    -2.63675
