 60
-1158.0878820765226
C     -1.90827     1.17968    -4.90247
O     -2.86826     0.12653    -4.85225
H     -0.96231     0.84072    -5.33513
H     -3.03790    -0.17428    -5.74469
H     -2.28225     2.03169    -5.47357
H     -1.72473     1.49911    -3.88083
C      5.16075     0.16760     3.29647
O      4.75655     0.91821     2.16325
H      5.75283    -0.69821     2.99752
H      4.24204     0.31680     1.58076
H      5.76996     0.80784     3.93044
H      4.29847    -0.18172     3.87176
C     -0.79580    -1.64679    -2.56082
O     -0.07083    -0.71262    -1.76459
H     -1.55306    -2.16732    -1.97080
H     -0.62754     0.09155    -1.68087
H     -1.28834    -1.15289    -3.39706
H     -0.09579    -2.39111    -2.94211
C      3.13671    -0.31725    -0.63879
O      2.99041    -0.52708     0.75728
H      2.30931    -0.75106    -1.19319
H      2.16335    -0.08270     1.04466
H      3.19078     0.74794    -0.87606
H      4.06491    -0.78961    -0.95573
C      3.00084     3.84830     1.87233
O      2.77946     2.67842     2.64519
H      3.91155     4.35759     2.18910
H      3.57852     2.11312     2.55962
H      3.08628     3.60919     0.80874
H      2.15634     4.51882     2.01676
C     -3.47401    -2.28868     1.84827
O     -2.97873    -2.32960     0.52131
H     -3.42097    -1.27525     2.25529
H     -2.00372    -2.26901     0.57854
H     -4.51272    -2.61240     1.84523
H     -2.90038    -2.94993     2.50071
C     -4.63446    -0.75416    -2.13647
O     -3.97848    -0.29896    -0.96366
H     -4.78759     0.08818    -2.80914
H     -3.68528    -1.07802    -0.44661
H     -4.03850    -1.50375    -2.66277
H     -5.60758    -1.18397    -1.89180
C      0.77101    -2.81735     1.00948
O     -0.32643    -2.00548     0.62637
H      1.28262    -2.38695     1.87022
H     -0.08696    -1.45883    -0.15152
H      0.39628    -3.80234     1.28513
H      1.49390    -2.92356     0.20196
C      0.30607     0.38808     2.81254
O      0.97285     0.96616     1.70151
H      1.01484    -0.06227     3.51210
H      1.53532     1.69654     2.05065
H     -0.27671     1.13940     3.34693
H     -0.36808    -0.38394     2.45783
C     -1.55246     1.88852    -0.09886
O     -1.84535     1.24865    -1.33223
H     -1.60567     1.19935     0.74650
H     -2.69985     0.76751    -1.23776
H     -0.54088     2.28700    -0.14708
H     -2.24489     2.71400     0.07481
