 42
-810.665657247511
C     -1.83883     3.01940     2.95096
O     -1.23423     1.80989     2.53924
H     -1.29323     3.89438     2.58438
H     -1.07405     1.86429     1.57779
H     -2.87334     3.09044     2.59926
H     -1.84372     3.05161     4.04047
C      2.43583    -1.85462    -1.74268
O      1.47327    -0.92627    -2.23733
H      2.27916    -2.84056    -2.17950
H      0.60622    -1.38638    -2.23906
H      3.42859    -1.50530    -2.02513
H      2.37493    -1.93375    -0.65555
C      1.50805    -0.18363     2.70691
O      1.30049    -0.44506     1.31954
H      1.44640    -1.13281     3.23564
H      1.50930     0.33546     0.78604
H      2.49927     0.23986     2.88212
H      0.74388     0.48843     3.09160
C      2.81713     2.05397    -1.30726
O      1.63914     1.35132    -0.94506
H      2.68194     2.55312    -2.26684
H      1.58481     0.54249    -1.50936
H      3.02416     2.79630    -0.54077
H      3.66562     1.37214    -1.38013
C     -2.13282    -2.15595    -2.58977
O     -0.86321    -2.17569    -1.96183
H     -2.80872    -1.46234    -2.08496
H     -0.99376    -2.10665    -0.99332
H     -2.00830    -1.83406    -3.62219
H     -2.58345    -3.14967    -2.57754
C     -1.83153    -1.64650     1.77081
O     -0.93790    -1.70513     0.66804
H     -1.75513    -0.69580     2.29673
H     -0.11494    -1.22936     0.90779
H     -2.84917    -1.76353     1.39648
H     -1.63049    -2.46048     2.47070
C     -1.67512     1.12360    -0.86601
O     -0.82468     1.97282    -0.10476
H     -2.21279     0.45024    -0.20079
H      0.07685     1.88261    -0.45433
H     -2.39990     1.72958    -1.41104
H     -1.11107     0.52366    -1.57970
