 60
-1158.0926353779817
C     -0.45979    -2.07585    -3.90104
O     -1.51552    -2.29346    -2.97761
H      0.39652    -1.59111    -3.43076
H     -1.91974    -1.43609    -2.77742
H     -0.14428    -3.04128    -4.29372
H     -0.79166    -1.45685    -4.73267
C     -0.15056     1.72549    -4.91643
O      0.06640     1.16519    -3.63264
H     -0.60577     1.00393    -5.60157
H     -0.78281     0.96636    -3.21609
H     -0.78723     2.61495    -4.87639
H      0.81731     2.01597    -5.32383
C      3.97127     1.17063     2.49813
O      2.58759     1.18092     2.20417
H      4.44789     0.27282     2.09839
H      2.20111     0.36082     2.58565
H      4.43508     2.04281     2.04006
H      4.14737     1.20548     3.57644
C     -3.22968     1.14691    -1.60443
O     -2.23811     0.21331    -2.01458
H     -3.92078     1.28879    -2.43029
H     -1.66334     0.06458    -1.23668
H     -3.77508     0.76848    -0.73966
H     -2.77254     2.10363    -1.34708
C      1.37616    -0.88186     4.73403
O      1.42718    -0.95199     3.31863
H      2.35740    -0.59180     5.11013
H      0.51961    -1.14653     2.99496
H      0.64422    -0.14119     5.06689
H      1.11539    -1.85025     5.16231
C      0.76717    -0.37314    -0.48151
O     -0.45388     0.21186     0.00438
H      1.55185    -0.27149     0.26367
H     -0.35267     1.19764    -0.02291
H      0.59236    -1.42498    -0.68092
H      1.08250     0.11437    -1.40086
C     -0.08910    -4.80825    -1.26425
O     -0.76801    -3.67682    -0.76293
H      0.34250    -5.35550    -0.42683
H     -1.12291    -3.19599    -1.52896
H     -0.76370    -5.47973    -1.80273
H      0.72304    -4.53218    -1.94293
C     -1.92798    -2.23672     2.05795
O     -1.03758    -1.15593     2.31939
H     -2.79289    -1.88581     1.49087
H     -0.93242    -0.65833     1.49087
H     -1.43501    -3.02278     1.49087
H     -2.27357    -2.62872     3.01225
C      1.14756     3.07985    -0.85464
O     -0.08391     2.84320    -0.17476
H      1.44781     4.12159    -0.75040
H      0.06530     3.08925     0.76680
H      1.94601     2.44960    -0.45615
H      1.01150     2.85106    -1.90749
C     -0.34859     2.48610     3.23269
O      0.62375     3.08280     2.38612
H     -0.06965     2.61192     4.28085
H      1.40513     2.49811     2.37051
H     -1.30176     2.98701     3.06891
H     -0.46854     1.42157     3.02700
