 36
-694.8523278259597
C     -2.08428     0.70677    -1.50782
O     -0.86813     1.19265    -0.95450
H     -2.27515    -0.32379    -1.20702
H     -0.14816     0.61437    -1.26329
H     -2.89811     1.33507    -1.14883
H     -2.05853     0.75405    -2.59416
C      2.41600     0.06931    -1.64526
O      1.16520    -0.58300    -1.46807
H      2.44011     1.00792    -1.08927
H      1.16524    -0.98108    -0.56093
H      3.22686    -0.56738    -1.29471
H      2.55104     0.27051    -2.70482
C     -0.20014    -1.86797     1.35453
O      1.09970    -1.38118     1.04092
H     -0.17164    -2.48097     2.25526
H      1.27850    -0.64959     1.67375
H     -0.90348    -1.04674     1.50043
H     -0.55146    -2.49432     0.53391
C     -1.10402     3.28064     1.68357
O     -0.86874     1.88708     1.59577
H     -0.45662     3.83542     1.00160
H     -0.89772     1.63666     0.64367
H     -2.14440     3.51168     1.44505
H     -0.90217     3.60780     2.70325
C     -0.95862    -2.79007    -3.10122
O     -0.62678    -1.46710    -3.46804
H     -0.07284    -3.41839    -2.97303
H      0.06653    -1.17530    -2.86582
H     -1.52519    -2.80621    -2.16448
H     -1.57845    -3.22093    -3.88558
C      1.03132     0.44780     4.10919
O      1.22545     0.67927     2.72700
H      1.05510     1.38510     4.66918
H      0.46836     1.21186     2.40069
H      0.07639    -0.04735     4.30138
H      1.83692    -0.18935     4.46971
