 54
-1042.2786210597264
C     -3.65442     2.09001     1.26956
O     -2.73919     1.23278     0.62328
H     -3.14721     2.88402     1.82597
H     -2.17068     1.78915     0.07074
H     -4.34181     2.55517     0.55701
H     -4.24265     1.50261     1.97415
C      1.95389     3.72068    -2.20285
O      1.23245     2.69725    -1.53855
H      3.01192     3.46565    -2.26784
H      1.25879     1.89137    -2.11033
H      1.57091     3.88713    -3.21190
H      1.85697     4.64301    -1.63328
C     -2.03864    -0.67406    -1.89538
O     -1.67807     0.42359    -2.73760
H     -3.07089    -0.58770    -1.56217
H     -1.87048     1.24343    -2.26536
H     -1.93342    -1.58433    -2.48031
H     -1.39741    -0.73110    -1.01666
C      1.57009    -0.62164    -2.67572
O      0.97539     0.58608    -3.12318
H      1.24354    -0.89334    -1.67251
H      0.00312     0.45654    -3.13281
H      1.34072    -1.43877    -3.36119
H      2.64996    -0.47962    -2.66856
C      1.57149    -4.77176     3.23520
O      1.26264    -3.39150     3.17274
H      1.27984    -5.28700     2.31645
H      1.89681    -2.98146     2.55205
H      2.64052    -4.93004     3.39468
H      1.02855    -5.20986     4.07014
C     -1.81885    -1.26216     3.09953
O     -0.95562    -1.93446     2.19236
H     -2.30139    -0.43899     2.57437
H     -0.35189    -2.51786     2.68446
H     -2.58679    -1.94129     3.47265
H     -1.25972    -0.86255     3.94880
C     -1.83135     4.09159    -1.63081
O     -1.34006     2.88171    -1.08299
H     -1.72116     4.09164    -2.71683
H     -0.35861     2.86081    -1.20020
H     -2.88682     4.18420    -1.38344
H     -1.30135     4.95279    -1.22323
C      0.87173     0.75268     1.37643
O      0.73281    -0.50284     0.72161
H      1.54804     1.37288     0.79323
H      0.01991    -0.99683     1.18338
H     -0.08771     1.26019     1.45898
H      1.29257     0.62960     2.37688
C      2.94083    -3.02766     0.11896
O      2.74998    -2.19941     1.25034
H      2.03648    -3.59125    -0.12809
H      2.14514    -1.47776     0.97935
H      3.22829    -2.43607    -0.75177
H      3.74498    -3.72839     0.33414
