 36
-694.8479013360255
C      2.00914     1.29834     1.28039
O      1.66347     0.46648     0.17358
H      1.22716     1.27125     2.03860
H      0.84054     0.81934    -0.20701
H      2.94011     0.92815     1.70182
H      2.14854     2.32938     0.95362
C     -1.04024     1.59078    -2.12075
O     -0.80401     1.15844    -0.78985
H     -1.33462     0.75216    -2.75177
H     -1.27750     0.29947    -0.63712
H     -1.82879     2.34170    -2.13097
H     -0.12501     2.02773    -2.51771
C      1.09615    -3.34643     0.47894
O      0.45121    -2.14431     0.89517
H      1.46233    -3.25691    -0.54113
H      1.06688    -1.40179     0.82036
H      1.92792    -3.58581     1.14335
H      0.36244    -4.14844     0.53662
C      1.42820    -1.31941    -2.68420
O      2.54657    -1.37054    -1.82244
H      0.51041    -1.04241    -2.16091
H      2.45191    -0.65743    -1.18108
H      1.59046    -0.61346    -3.50301
H      1.28438    -2.30955    -3.11975
C     -2.66225    -1.00049     0.99481
O     -1.80089    -1.16755    -0.13532
H     -2.54327    -0.00145     1.41975
H     -1.01921    -1.67116     0.18084
H     -3.69392    -1.13527     0.67628
H     -2.42687    -1.73545     1.76374
C     -1.87070     3.61748     1.92343
O     -1.11432     2.42485     1.82194
H     -2.89569     3.48327     1.56361
H     -1.04458     2.16681     0.89519
H     -1.91101     3.89364     2.97648
H     -1.40846     4.44078     1.36982
