 42
-810.6631785807248
C     -0.45966    -2.44556     2.38798
O     -0.24077    -1.06394     2.64647
H     -0.23065    -2.70247     1.35419
H      0.49433    -0.75043     2.10340
H      0.13665    -3.07216     3.05645
H     -1.51355    -2.66519     2.56439
C     -0.66642     2.28296     2.56743
O     -0.28340     1.96582     1.23285
H      0.14803     2.78379     3.09279
H      0.54544     1.44960     1.28237
H     -1.51998     2.95666     2.52979
H     -0.93775     1.38186     3.11664
C     -1.21169    -2.24811    -2.28497
O     -0.85615    -2.09890    -0.92393
H     -0.69411    -1.53031    -2.92617
H     -1.14185    -1.22259    -0.61822
H     -0.92544    -3.25182    -2.59864
H     -2.28814    -2.13599    -2.44157
C      2.16457    -1.27337    -1.99853
O      1.83519    -0.01470    -1.42290
H      1.51666    -2.05454    -1.60508
H      1.03956     0.34503    -1.87135
H      2.06385    -1.23494    -3.08390
H      3.20196    -1.50398    -1.75945
C     -0.32262     2.46175    -2.54992
O     -0.40918     1.04022    -2.47485
H     -0.06450     2.89356    -1.58089
H     -1.13951     0.81469    -1.87460
H      0.45175     2.71596    -3.27194
H     -1.26809     2.88713    -2.88893
C      3.08477     0.46515     1.65302
O      1.78203     0.25731     1.14037
H      3.00583     0.67647     2.71759
H      1.84328     0.10249     0.15775
H      3.69674    -0.42676     1.51371
H      3.56517     1.30775     1.15425
C     -2.89015    -0.03499     0.70789
O     -1.84149     0.38656    -0.15921
H     -3.58358     0.78727     0.88380
H     -1.27448     1.01665     0.35257
H     -3.43531    -0.84532     0.22761
H     -2.48905    -0.38426     1.65620
