 36
-694.8508615656391
C     -0.05621     3.80091    -1.19853
O      0.86181     3.02574    -1.94179
H     -1.03671     3.84309    -1.68052
H      0.42459     2.18928    -2.14440
H     -0.19224     3.40814    -0.18683
H      0.33503     4.81464    -1.12105
C      2.25669    -2.89914     1.45488
O      1.16385    -2.17705     0.91402
H      2.70928    -2.36178     2.29244
H      1.53199    -1.40252     0.43380
H      1.89443    -3.86377     1.80616
H      3.02127    -3.06886     0.69495
C      1.87232     1.14133     0.67535
O      1.98996     0.06741    -0.26192
H      0.85630     1.21186     1.06588
H      1.52349     0.33096    -1.06755
H      2.55124     0.94030     1.50225
H      2.14526     2.08781     0.21509
C     -0.35080    -0.91177    -2.41646
O     -0.29363     0.45215    -2.01928
H     -1.31704    -1.13869    -2.86760
H     -0.87815     0.54855    -1.23423
H      0.42576    -1.08361    -3.15738
H     -0.19046    -1.58328    -1.57121
C     -1.87355    -2.04965     2.62437
O     -1.00031    -1.09667     2.04507
H     -2.78603    -1.54402     2.93648
H     -0.20710    -1.57339     1.71812
H     -2.13068    -2.83126     1.90470
H     -1.41588    -2.51386     3.49975
C     -3.13091     0.08383    -0.14520
O     -1.83684     0.58162     0.15950
H     -3.90042     0.72226     0.29243
H     -1.49550     0.04861     0.91015
H     -3.27368     0.07046    -1.22741
H     -3.25247    -0.93148     0.23303
