 36
-694.857584115088
C      0.06980     1.78316    -1.64310
O      0.52865     2.43663    -0.46451
H     -0.56721     0.93156    -1.39920
H     -0.16264     2.30292     0.21412
H     -0.49056     2.47734    -2.27091
H      0.93170     1.42679    -2.20844
C      2.33124     0.81362     1.71155
O      2.60599     0.92844     0.31811
H      2.49125    -0.21984     2.02015
H      1.98075     1.60520    -0.02022
H      3.00129     1.45427     2.28541
H      1.29745     1.08830     1.92472
C      2.94219    -2.41945    -0.18967
O      2.09806    -1.45174    -0.78469
H      3.97255    -2.06534    -0.14048
H      2.35393    -0.57036    -0.43005
H      2.60921    -2.66441     0.82222
H      2.91645    -3.32477    -0.79389
C     -0.78951    -2.20389    -2.33573
O     -0.47794    -1.98529    -0.97115
H     -1.86435    -2.35308    -2.42940
H      0.48553    -1.79855    -0.91469
H     -0.49944    -1.34611    -2.94635
H     -0.27919    -3.09174    -2.71062
C     -3.02364    -1.43107     1.18109
O     -2.26577    -0.58101     0.34020
H     -3.63838    -0.82223     1.84387
H     -1.60674    -1.14301    -0.13052
H     -3.68290    -2.06975     0.58923
H     -2.37382    -2.06367     1.78896
C     -2.50101     2.50374     1.66253
O     -1.38586     1.71602     1.29901
H     -3.08341     2.01530     2.44723
H     -1.73732     0.86093     0.96857
H     -2.14959     3.46281     2.03987
H     -3.15691     2.67943     0.80614
