 60
-1158.1019523545122
C      0.74258     0.95362    -3.87419
O     -0.01734     1.89364    -3.12833
H      0.95019     0.05895    -3.28974
H      0.48513     2.11690    -2.31262
H      0.17069     0.67470    -4.75852
H      1.68627     1.39375    -4.20135
C      1.70718     3.82531    -0.69652
O      1.27238     2.49314    -0.89326
H      1.75969     4.33454    -1.65909
H      0.73001     2.24996    -0.10838
H      1.02237     4.36791    -0.04554
H      2.70323     3.83924    -0.24755
C      3.32250     0.76236     0.87448
O      2.95559    -0.61188     0.78928
H      4.16990     0.84615     1.55221
H      2.41640    -0.72640    -0.02684
H      3.61471     1.14339    -0.10250
H      2.50073     1.37298     1.25275
C     -2.04449    -0.58397     2.52558
O     -0.83569     0.13291     2.73405
H     -2.06208    -1.49582     3.11857
H     -0.09761    -0.50274     2.71382
H     -2.87698     0.04133     2.84432
H     -2.17430    -0.84520     1.47592
C     -2.23720    -1.93247    -1.11637
O     -1.43028    -0.76794    -1.06575
H     -2.25300    -2.35485    -2.12371
H     -1.85677    -0.09345    -1.63416
H     -1.85089    -2.67616    -0.42425
H     -3.26593    -1.70059    -0.82815
C      1.95942    -1.69500     3.79695
O      1.31822    -1.52633     2.54641
H      2.57901    -2.59199     3.78988
H      1.99685    -1.20256     1.88542
H      2.58616    -0.83431     4.02933
H      1.20161    -1.79343     4.57351
C     -3.46291     2.05958    -2.87044
O     -2.46915     1.06473    -2.69942
H     -3.45315     2.45323    -3.88836
H     -1.60712     1.45884    -2.96885
H     -4.43747     1.61803    -2.67223
H     -3.30388     2.88822    -2.17589
C      1.37967    -2.51432    -1.45707
O      1.23599    -1.13914    -1.13808
H      1.01343    -2.71928    -2.46532
H      0.28312    -0.93278    -1.05774
H      2.43949    -2.76473    -1.42585
H      0.84847    -3.14551    -0.74406
C     -0.81986    -4.15315     2.67797
O     -0.52829    -3.31744     1.58131
H      0.05451    -4.71706     3.01508
H      0.17027    -2.70193     1.84933
H     -1.20209    -3.58407     3.53019
H     -1.58671    -4.86672     2.37779
C     -1.67615     2.49965     0.49279
O     -0.43168     2.15426     1.08311
H     -2.14246     1.64821    -0.00199
H     -0.59758     1.42319     1.71868
H     -2.36394     2.88875     1.24459
H     -1.51442     3.28219    -0.24721
