 36
-694.8479499920987
C      0.85526    -0.20939    -2.50550
O     -0.22204    -0.79478    -1.78146
H      0.49605     0.19617    -3.45086
H     -0.74592    -0.04825    -1.42537
H      1.33053     0.58753    -1.93307
H      1.58415    -0.98742    -2.72185
C      3.20040     1.77428     0.01560
O      1.95812     2.45726    -0.01036
H      3.78235     2.03391     0.90364
H      1.42483     2.11541     0.71826
H      3.06582     0.68940    -0.00448
H      3.76814     2.06645    -0.86826
C      0.67556    -2.59830     1.47050
O      1.08480    -1.40268     0.80260
H     -0.40510    -2.72053     1.42674
H      0.77661    -1.44680    -0.11478
H      1.15231    -3.46770     1.01832
H      0.99455    -2.53370     2.50909
C     -1.25771     2.55085    -1.24946
O     -1.37820     1.29436    -0.58471
H     -1.70824     2.45001    -2.23518
H     -0.95364     1.35418     0.28456
H     -1.79128     3.32949    -0.70318
H     -0.21268     2.83679    -1.35742
C     -3.14206    -2.06713    -0.59715
O     -1.91843    -2.77688    -0.68030
H     -3.73938    -2.19747    -1.50305
H     -1.31594    -2.24218    -1.21285
H     -3.70650    -2.45409     0.25084
H     -2.97201    -0.99864    -0.44303
C     -0.21904     0.84024     3.08995
O      0.29962     0.94662     1.77513
H      0.55204     0.50454     3.78568
H      0.61539     0.05691     1.49965
H     -0.56984     1.82095     3.40080
H     -1.05358     0.13692     3.12215
