 36
-694.8543305525619
C     -1.29336    -2.02184     2.70962
O     -0.87464    -0.82661     2.07890
H     -1.10526    -2.88898     2.07191
H     -1.38236    -0.74452     1.24056
H     -0.73992    -2.14312     3.64011
H     -2.35909    -1.98641     2.94441
C      3.21217     0.76409    -1.20654
O      2.11584    -0.09512    -0.94088
H      4.09808     0.43857    -0.66042
H      2.04132    -0.19291     0.03515
H      3.42889     0.73219    -2.27277
H      2.97891     1.79124    -0.91818
C      2.43780    -1.37245     2.38176
O      1.72316    -0.36884     1.68447
H      2.13384    -1.41164     3.42851
H      0.76938    -0.49692     1.88279
H      2.27332    -2.35651     1.93566
H      3.50096    -1.13933     2.34117
C     -0.23653    -0.42753    -3.33423
O     -0.21797     0.21981    -2.07363
H      0.38274     0.11567    -4.04933
H      0.68475     0.09506    -1.68475
H      0.13662    -1.44828    -3.24358
H     -1.26122    -0.45407    -3.70072
C     -3.29448     0.20062    -0.34572
O     -2.10389    -0.56898    -0.26173
H     -4.00879    -0.19261     0.37665
H     -1.49527    -0.27047    -0.96370
H     -3.09961     1.24851    -0.12703
H     -3.73759     0.12231    -1.34034
C     -0.48094     2.49429     0.32134
O     -1.07458     2.70300    -0.94883
H     -1.11355     1.87714     0.96143
H     -0.79518     1.97870    -1.51872
H      0.49362     2.01151     0.24699
H     -0.34984     3.46302     0.80563
