 30
-579.032279346143
C      2.45189    -0.27895    -1.05603
O      3.17609     0.42922    -0.04656
H      1.69170    -0.92552    -0.61909
H      3.74216    -0.19311     0.40891
H      1.95255     0.45360    -1.68443
H      3.12188    -0.87016    -1.68389
C     -1.73773    -2.84704     0.07893
O     -0.68048    -1.90976    -0.00692
H     -1.82682    -3.35608    -0.87956
H     -0.70366    -1.34657     0.80124
H     -1.53754    -3.59382     0.84961
H     -2.68610    -2.35317     0.30422
C      0.50753    -0.00882     2.65663
O     -0.71945    -0.09613     1.94780
H      0.40472     0.66822     3.50627
H     -0.79639     0.72958     1.42350
H      0.75661    -0.99791     3.04103
H      1.31832     0.34357     2.01719
C      0.53742     2.75430     0.28252
O     -0.62083     1.92927     0.21070
H      0.45374     3.60139    -0.40009
H     -0.61855     1.45560    -0.63881
H      0.61292     3.14585     1.29591
H      1.43829     2.18688     0.05326
C     -2.04067     0.03901    -2.42736
O     -0.73136     0.03126    -1.88476
H     -2.80302     0.06550    -1.64390
H     -0.66440    -0.75467    -1.30680
H     -2.15044     0.92516    -3.04939
H     -2.21479    -0.84209    -3.04879
