 36
-694.8538996302701
C     -1.85229     1.28230    -2.11079
O     -2.12483     1.31218    -0.71449
H     -2.21319     2.19187    -2.58893
H     -1.47299     1.92797    -0.30799
H     -0.78116     1.18958    -2.29461
H     -2.36379     0.42861    -2.55426
C      3.39884     0.80041    -0.41206
O      2.12730     1.09042     0.13772
H      3.38659    -0.13905    -0.96768
H      1.83880     0.30296     0.64537
H      3.67352     1.60256    -1.09230
H      4.15529     0.72846     0.37265
C      1.60204    -2.27619     1.22784
O      1.02703    -0.98762     1.38496
H      1.59938    -2.58840     0.18409
H      0.09183    -1.02714     1.10838
H      2.62898    -2.23808     1.59000
H      1.06206    -3.01773     1.81986
C      0.52058    -1.55586    -2.29214
O     -0.27235    -2.46489    -1.56029
H      1.37593    -2.09918    -2.69452
H     -0.82373    -1.96797    -0.94539
H     -0.03031    -1.13608    -3.13953
H      0.89309    -0.73173    -1.67878
C     -0.31693     2.47862     1.89054
O     -0.10353     2.57267     0.48676
H     -1.27578     2.93995     2.12336
H      0.74987     2.14291     0.28590
H     -0.33655     1.43699     2.21814
H      0.46611     3.00542     2.43647
C     -2.50857    -1.19781     1.51796
O     -1.54585    -0.91508     0.51711
H     -2.51054    -0.40892     2.27243
H     -1.81859    -0.08071     0.05214
H     -3.50431    -1.27489     1.08278
H     -2.25713    -2.14469     1.99218
