 18
-347.4077281121447
C     -0.77958     2.24218    -0.52964
O     -1.82780     1.63411     0.18896
H      0.11710     2.35458     0.08795
H     -1.55854     0.72921     0.38101
H     -0.51342     1.67382    -1.42763
H     -1.10479     3.23455    -0.83909
C     -1.32768    -2.04877    -0.37456
O     -0.77604    -1.04245     0.46195
H     -1.13574    -1.82552    -1.42655
H      0.17930    -1.02340     0.31231
H     -0.91279    -3.03087    -0.13584
H     -2.40204    -2.06791    -0.20610
C      2.54512     0.34664     0.05719
O      2.05741    -0.98735     0.18406
H      2.32420     0.93108     0.95168
H      2.49597    -1.40579     0.92555
H      3.61817     0.35649    -0.13550
H      2.03384     0.79508    -0.79219
