 60
-1158.0862906113366
C      1.52838    -0.31199    -3.08511
O      0.37162    -0.93125    -2.52441
H      1.19673     0.47781    -3.75502
H      0.63687    -1.39738    -1.72135
H      2.16393     0.11677    -2.31227
H      2.10459    -1.03594    -3.66038
C      0.19575    -2.59974     2.84904
O     -0.14695    -2.97455     1.51664
H     -0.05173    -3.42211     3.51874
H      0.49493    -2.53123     0.93058
H      1.26139    -2.38274     2.93189
H     -0.36618    -1.71450     3.15574
C      4.37198     1.76796     0.71339
O      3.57946     1.66114    -0.45333
H      4.08482     2.63121     1.31708
H      2.67350     1.47551    -0.15407
H      4.29904     0.87375     1.33962
H      5.40944     1.89106     0.41135
C      2.93428    -1.90432    -0.03568
O      1.56313    -1.52723     0.05077
H      3.55785    -1.04325    -0.26759
H      1.48565    -0.59034     0.33437
H      3.25934    -2.35440     0.90326
H      3.03545    -2.64221    -0.82795
C      0.88684     1.92968     1.67149
O      1.06530     1.12566     0.50267
H      0.86137     2.98389     1.40081
H      0.29885     1.28706    -0.10980
H     -0.02777     1.64945     2.19090
H      1.73338     1.76229     2.33786
C     -2.23279     1.15104    -0.89221
O     -0.84946     1.32641    -1.22754
H     -2.85847     1.35502    -1.75876
H     -0.61738     0.65106    -1.88458
H     -2.43814     0.14217    -0.54268
H     -2.47974     1.85769    -0.10518
C     -3.48986     0.99695     2.73049
O     -2.20456     0.52834     2.38221
H     -4.14319     1.07446     1.85598
H     -2.31838    -0.33909     1.96572
H     -3.97734     0.34121     3.45694
H     -3.39166     1.98707     3.17441
C     -2.83266    -2.26923    -2.33130
O     -2.38082    -1.22095    -3.16551
H     -2.63799    -2.06001    -1.27833
H     -1.41856    -1.23978    -3.14293
H     -3.90804    -2.36881    -2.47482
H     -2.36736    -3.22562    -2.58820
C     -3.60358    -2.96257     1.48005
O     -2.60087    -1.98150     1.30049
H     -3.43152    -3.54050     2.38989
H     -1.73816    -2.44614     1.29449
H     -4.56409    -2.45699     1.55949
H     -3.63981    -3.65023     0.63318
C      1.32515     4.44632    -1.17177
O      2.43287     4.32614    -0.29758
H      1.63730     4.70331    -2.18740
H      2.98446     3.59472    -0.59622
H      0.73378     3.52947    -1.21066
H      0.69255     5.24928    -0.79585
