 54
-1042.2809918673172
C      3.83267     2.68146    -1.65347
O      3.20990     1.73880    -0.80759
H      3.25763     3.60990    -1.71835
H      2.33519     1.55052    -1.18188
H      4.81468     2.91608    -1.24360
H      3.96933     2.28975    -2.66599
C     -0.08928    -3.44083    -2.82182
O     -0.08893    -2.14382    -2.25216
H      0.85819    -3.94805    -2.63707
H      0.52129    -2.16418    -1.48203
H     -0.89324    -4.05191    -2.40291
H     -0.23254    -3.35597    -3.89818
C     -0.01845     1.11319    -2.95538
O      0.68158     1.26944    -1.73156
H     -1.09331     1.06837    -2.78906
H      0.03819     1.27913    -1.00494
H      0.20033     1.95786    -3.60983
H      0.29601     0.19398    -3.44634
C      2.50629    -1.49435     0.07739
O      1.38287    -2.36617    -0.05788
H      2.81595    -1.42142     1.12123
H      0.74224    -2.10189     0.62578
H      3.33156    -1.90536    -0.49888
H      2.28507    -0.49299    -0.28545
C     -3.09016    -1.18602    -3.24497
O     -2.54771    -1.04105    -1.94698
H     -4.05740    -1.68928    -3.18824
H     -1.63172    -1.37066    -1.97407
H     -3.24660    -0.20993    -3.71479
H     -2.43112    -1.76860    -3.89213
C     -1.75675    -2.13506     1.19301
O     -0.59929    -1.33256     1.45571
H     -2.45165    -1.62096     0.53363
H     -0.69252    -0.49372     0.96915
H     -1.45264    -3.06800     0.72144
H     -2.24622    -2.36613     2.14018
C     -2.35531     1.44173     0.38713
O     -0.94631     1.26815     0.41732
H     -2.74582     0.96150    -0.50389
H     -0.57933     1.77560     1.19560
H     -2.82658     0.98659     1.26186
H     -2.60690     2.50111     0.37075
C     -1.03459    -0.04050     4.91910
O      0.03811     0.06259     3.99245
H     -1.99560     0.12823     4.42634
H     -0.06523    -0.61474     3.31015
H     -1.04506    -1.02013     5.39658
H     -0.88912     0.72053     5.68228
C      1.40725     2.80455     2.44896
O      0.06146     2.32883     2.53679
H      1.84024     2.55862     1.47916
H      0.05807     1.59594     3.18598
H      1.40849     3.88467     2.57710
H      2.01645     2.35277     3.23043
