 54
-1042.286654530205
C      1.35157    -4.20294     1.17162
O      1.17870    -2.79814     1.13102
H      0.42431    -4.72347     0.91905
H      0.87783    -2.57991     0.22344
H      2.12794    -4.52044     0.47440
H      1.65371    -4.49443     2.17633
C      1.21483    -2.51310    -2.36836
O      0.32131    -2.21041    -1.31015
H      0.71035    -2.45146    -3.33480
H     -0.00276    -1.29581    -1.44678
H      2.07260    -1.83982    -2.37248
H      1.57534    -3.53353    -2.24116
C     -1.35977     0.91711    -2.45443
O     -0.37970     0.32838    -1.60347
H     -0.98900     1.85258    -2.86834
H     -0.29673     0.89586    -0.79990
H     -1.56261     0.22191    -3.26694
H     -2.27846     1.09420    -1.89967
C      2.07098     3.79920    -3.87915
O      1.48668     3.44711    -2.63980
H      2.19259     2.92988    -4.53202
H      1.95248     2.67900    -2.28638
H      1.41297     4.51217    -4.37672
H      3.04907     4.27005    -3.74496
C     -1.48173    -2.66392     2.96980
O     -0.36725    -1.78325     3.02146
H     -2.38341    -2.13091     3.27447
H      0.28030    -2.12682     2.36385
H     -1.62448    -3.05391     1.96117
H     -1.33006    -3.50260     3.64895
C     -3.03735    -0.85558     0.11645
O     -3.10119     0.47216     0.59252
H     -3.56500    -0.90422    -0.83538
H     -2.51658     0.54751     1.35452
H     -2.01406    -1.19873    -0.04298
H     -3.54079    -1.55116     0.79455
C     -0.78798     3.11355     0.37162
O     -0.08702     1.88166     0.52125
H     -0.70542     3.71809     1.27588
H     -0.35803     1.48804     1.37369
H     -0.34900     3.67074    -0.45398
H     -1.84636     2.93920     0.16726
C      2.78081     0.49497    -0.50647
O      2.48441     0.79863    -1.86566
H      3.86165     0.40804    -0.41596
H      1.57243     0.53778    -2.03688
H      2.43640     1.29085     0.15077
H      2.32871    -0.44470    -0.18842
C     -1.16715     1.35746     3.97060
O     -1.04346     0.71694     2.71095
H     -2.07535     1.02917     4.47841
H     -0.76156    -0.22282     2.86654
H     -0.30559     1.13610     4.59948
H     -1.22182     2.43304     3.81228
