 54
-1042.2829388819805
C     -0.98039    -3.37630     0.29007
O     -0.28681    -2.46416     1.11811
H     -0.25483    -3.88513    -0.34523
H     -0.93039    -2.03244     1.69632
H     -1.50561    -4.13614     0.87491
H     -1.70454    -2.87301    -0.35540
C      0.77255     1.43843    -4.39177
O      1.54879     1.79839    -3.25872
H      0.97640     2.10904    -5.22736
H      2.41197     1.33083    -3.31672
H      0.97904     0.41088    -4.69828
H     -0.28387     1.51881    -4.13745
C      2.55950    -1.96767    -0.76558
O      2.91573    -0.59065    -0.70074
H      2.19956    -2.23398    -1.76397
H      2.10840    -0.06724    -0.58320
H      3.45460    -2.55002    -0.56023
H      1.79122    -2.21493    -0.03672
C      4.94105     1.25984    -2.74611
O      3.83744     0.41349    -3.03511
H      4.67691     2.01832    -2.00473
H      3.62843    -0.07583    -2.21399
H      5.78407     0.68101    -2.36701
H      5.24361     1.75545    -3.66638
C     -4.75551    -0.39962     0.27413
O     -3.40612    -0.74693     0.03350
H     -4.84062     0.39328     1.02152
H     -3.01587    -1.01208     0.87752
H     -5.19210    -0.03893    -0.65616
H     -5.34287    -1.25541     0.61987
C     -2.87917    -1.70137     3.75959
O     -2.20588    -1.17001     2.63081
H     -2.85008    -2.78727     3.69954
H     -2.02041    -0.20953     2.80596
H     -2.39629    -1.38311     4.68316
H     -3.91954    -1.37072     3.76927
C     -0.45840     0.21220    -1.26018
O      0.59547     1.11277    -0.90741
H     -0.27498    -0.20313    -2.24904
H      0.93013     1.49570    -1.75287
H     -0.51827    -0.60279    -0.54352
H     -1.41622     0.72872    -1.27052
C      1.50401     0.61069     2.21948
O      0.64859     1.65800     1.76461
H      2.51748     0.74216     1.83809
H      0.62082     1.60179     0.79223
H      1.54214     0.65625     3.30627
H      1.13681    -0.37125     1.91691
C     -2.60078     2.16956     2.09058
O     -1.73130     1.39138     2.90662
H     -2.21376     3.17973     1.96399
H     -0.81549     1.57879     2.58760
H     -2.72750     1.71943     1.10315
H     -3.56949     2.22929     2.58405
