 36
-694.8458368338501
C     -0.01452     3.05089    -1.99999
O      0.51942     3.94131    -1.04458
H     -0.72244     2.34734    -1.55526
H      0.65044     3.43330    -0.23495
H     -0.53905     3.62629    -2.76225
H      0.77335     2.47469    -2.49201
C      0.98680    -0.90420     3.22458
O      0.60594    -1.46710     1.97196
H      1.17623     0.16337     3.12209
H      1.16032    -1.08139     1.27834
H      0.16563    -1.05647     3.92369
H      1.87826    -1.39742     3.61403
C      2.64955    -0.33319    -1.27341
O      1.49355    -0.14901    -0.46950
H      2.54009    -1.20922    -1.91485
H      0.69545    -0.36980    -0.99895
H      2.81880     0.54586    -1.89789
H      3.50692    -0.47673    -0.62032
C     -0.99387    -1.74764    -2.66508
O     -0.81704    -0.86490    -1.57042
H     -0.55071    -2.72578    -2.46071
H     -1.28421    -1.25214    -0.79743
H     -2.05392    -1.88290    -2.88523
H     -0.51120    -1.31393    -3.53855
C     -2.20934    -3.26616     0.80760
O     -1.72521    -1.93712     0.69742
H     -2.64460    -3.43794     1.79305
H     -0.95790    -1.83633     1.29582
H     -2.98166    -3.41260     0.05454
H     -1.40888    -3.99091     0.64093
C     -0.66356     1.65013     1.31506
O      0.68249     2.04487     1.08080
H     -1.01629     0.95938     0.54871
H      1.09559     1.35127     0.54876
H     -0.75993     1.16312     2.28482
H     -1.30144     2.53357     1.30325
