 42
-810.6606471786928
C     -1.10994    -0.41160    -2.70405
O     -1.29131    -1.36989    -1.67405
H     -0.77919    -0.93337    -3.60157
H     -1.63461    -0.90175    -0.89227
H     -2.04987     0.09437    -2.93493
H     -0.36056     0.32639    -2.42257
C      1.20533    -1.89533     2.02690
O      0.62865    -0.63587     1.67156
H      2.09884    -1.69297     2.61363
H     -0.28827    -0.75470     1.38649
H      0.51126    -2.48592     2.62808
H      1.47153    -2.45227     1.13132
C      0.62256    -4.16281    -1.98087
O      0.71656    -3.06066    -1.10162
H     -0.38910    -4.57805    -2.00422
H     -0.01366    -2.44695    -1.30870
H      0.90302    -3.88995    -3.00466
H      1.30400    -4.94034    -1.63616
C      2.39755     0.06148    -1.74112
O      1.55567     0.77513    -0.84192
H      3.43637     0.06915    -1.40171
H      1.34863     0.22457    -0.07573
H      2.07316    -0.97080    -1.87021
H      2.35461     0.56094    -2.71003
C     -3.09486    -0.17190     1.46238
O     -2.01203    -0.02906     0.55558
H     -3.46828    -1.19141     1.39914
H     -1.76724     0.93510     0.52877
H     -2.76093     0.02740     2.48237
H     -3.89663     0.52254     1.21236
C     -0.88351     3.17364    -0.50376
O     -1.28821     2.46151     0.65947
H     -0.01438     2.70846    -0.96643
H     -0.54931     2.48739     1.30618
H     -1.71103     3.16899    -1.21139
H     -0.65118     4.21058    -0.25751
C      2.02211     2.77380     1.88584
O      0.79527     2.18876     2.31295
H      1.92724     3.85275     1.99129
H      0.89747     1.22658     2.32345
H      2.84859     2.43576     2.51193
H      2.23383     2.52800     0.84611
