 36
-694.8454320770599
C     -0.12238     2.66487    -1.01354
O      0.81441     1.90362    -0.26253
H     -1.13544     2.27376    -0.88729
H      1.00629     1.09138    -0.78254
H     -0.09693     3.69429    -0.66105
H      0.12087     2.65349    -2.07808
C     -0.05354    -0.57490     1.88587
O     -0.70026     0.67599     1.65250
H     -0.49461    -1.02422     2.77546
H     -0.08630     1.23358     1.13449
H     -0.20280    -1.26006     1.04834
H      1.01612    -0.44294     2.03879
C      3.36485     1.15865     2.14247
O      3.42968    -0.16559     1.61536
H      2.67785     1.72171     1.51683
H      4.04854    -0.67325     2.14009
H      2.98428     1.16371     3.16823
H      4.34170     1.64559     2.11787
C     -1.97907    -1.69091    -2.87158
O     -1.32550    -1.60838    -1.61694
H     -2.98382    -2.10414    -2.76002
H     -1.90331    -1.07690    -1.02740
H     -2.05836    -0.70615    -3.33846
H     -1.40460    -2.34728    -3.52263
C     -3.77325    -0.63143     0.81051
O     -2.72918    -0.04936     0.05189
H     -4.57220    -0.92675     0.13209
H     -2.06681     0.31178     0.68288
H     -3.42836    -1.51495     1.35323
H     -4.17767     0.08250     1.52953
C      2.13289    -1.21933    -1.28927
O      1.06249    -0.36086    -1.64868
H      2.34725    -1.92833    -2.09099
H      0.23049    -0.87976    -1.66861
H      3.02404    -0.62067    -1.10873
H      1.90917    -1.77526    -0.37554
