 60
-1158.0899188697258
C      3.39309    -3.74332    -0.26641
O      3.59039    -2.66227    -1.15803
H      3.28449    -4.64965    -0.86198
H      3.60864    -1.84587    -0.64493
H      4.24623    -3.87206     0.40574
H      2.49120    -3.61244     0.33783
C     -0.50420     2.95693    -1.07191
O     -1.49122     2.13029    -1.68367
H     -1.01055     3.81213    -0.62819
H     -1.01341     1.49159    -2.25526
H      0.04642     2.42460    -0.29285
H      0.20783     3.32440    -1.81033
C      0.20801    -1.89681     0.06209
O      0.81559    -1.38888     1.25191
H     -0.30102    -2.83462     0.28365
H      0.13024    -0.83795     1.67636
H     -0.51183    -1.19105    -0.34962
H      0.97377    -2.09311    -0.68633
C     -5.13162    -0.76015     2.23318
O     -4.38221    -1.95198     2.00311
H     -6.18152    -0.88649     1.96075
H     -4.85124    -2.69186     2.39001
H     -5.07772    -0.45807     3.28322
H     -4.70035     0.02585     1.61954
C     -0.10898     3.20519     2.86893
O      0.73339     2.20198     2.34111
H     -0.49915     3.84807     2.07503
H      0.17399     1.43127     2.17776
H     -0.96064     2.77849     3.40495
H      0.45906     3.82656     3.56142
C     -0.03302    -0.04467    -4.37289
O     -0.06029     0.25177    -2.98914
H      0.56613     0.68138    -4.92639
H      0.87250     0.35416    -2.69376
H      0.38297    -1.03920    -4.54844
H     -1.05074    -0.02357    -4.76173
C     -3.19797    -0.44827    -0.76748
O     -2.77040     0.63047     0.06700
H     -2.49348    -0.60072    -1.58528
H     -2.37859     1.29690    -0.54853
H     -3.27468    -1.35982    -0.17941
H     -4.17569    -0.22174    -1.18969
C      3.46707     0.15039    -3.03683
O      2.43349     0.62327    -2.18343
H      3.46761    -0.93857    -3.08752
H      2.66012     0.34518    -1.27352
H      3.30695     0.55393    -4.03626
H      4.44272     0.48799    -2.68374
C      3.56011     0.74623     1.17536
O      2.97140    -0.20801     0.29856
H      2.98148     1.66877     1.18405
H      2.19410    -0.61232     0.75549
H      3.60425     0.35169     2.18976
H      4.57006     0.94942     0.82609
C     -1.86035    -0.09189     3.25144
O     -1.14621     0.21663     2.06442
H     -1.15645    -0.11170     4.08182
H     -1.79389     0.37954     1.32554
H     -2.61274     0.67192     3.44983
H     -2.35630    -1.05665     3.16427
