 48
-926.4731309621018
C      1.22050     2.18253    -0.12150
O      0.49899     1.80279    -1.28960
H      0.84329     1.65558     0.75434
H      0.60047     0.83942    -1.38780
H      2.28620     1.98245    -0.23379
H      1.09605     3.25371     0.03018
C     -1.86745     3.93393    -0.28055
O     -1.86893     3.03251    -1.37121
H     -1.35959     3.51671     0.58952
H     -0.96254     2.65963    -1.43915
H     -1.37644     4.86940    -0.55715
H     -2.89989     4.15613    -0.01240
C     -2.71743    -0.21002    -1.67660
O     -2.99219     0.72464    -0.64618
H     -3.18980     0.08722    -2.61360
H     -2.77881     1.61685    -0.99783
H     -1.64397    -0.32455    -1.84272
H     -3.13202    -1.17417    -1.38416
C      4.29158    -1.94801    -0.25528
O      3.17514    -1.14293     0.08956
H      5.02630    -1.94653     0.54991
H      2.77120    -1.53759     0.89950
H      3.99197    -2.97947    -0.45470
H      4.75674    -1.53393    -1.14810
C     -1.48010    -2.59547     0.77715
O     -0.20819    -2.88213     0.20204
H     -2.24953    -3.21531     0.31503
H     -0.01102    -2.22521    -0.47878
H     -1.44841    -2.83371     1.83995
H     -1.74398    -1.54443     0.66595
C      1.09589    -1.29702     2.79082
O      1.73507    -2.29463     2.00100
H      1.85285    -0.59772     3.14264
H      1.04195    -2.70654     1.44831
H      0.34281    -0.75053     2.22219
H      0.62976    -1.75673     3.66316
C     -2.34382     1.46834     2.60946
O     -1.47654     0.97975     1.60525
H     -3.14361     0.75704     2.83708
H     -2.01230     0.83674     0.80176
H     -1.76679     1.63605     3.51989
H     -2.80837     2.41525     2.31781
C      1.46363    -1.15743    -2.82273
O      1.10141    -0.86261    -1.48422
H      1.85708    -2.17118    -2.90783
H      1.91839    -0.94795    -0.92400
H      0.57602    -1.07503    -3.44814
H      2.21524    -0.45401    -3.18757
