 42
-810.667834753784
C     -3.31957    -0.62529    -1.18003
O     -1.98412    -0.46424    -1.61148
H     -3.36090    -1.00442    -0.15535
H     -1.66018     0.40130    -1.27981
H     -3.86484     0.31769    -1.21688
H     -3.82505    -1.33591    -1.83257
C     -0.84327    -1.25665     1.74573
O      0.52899    -1.29526     2.12303
H     -1.07560    -0.36768     1.15811
H      0.99093    -1.83022     1.44064
H     -1.11182    -2.13352     1.15808
H     -1.45142    -1.24207     2.64803
C      2.63182    -1.52463    -0.47996
O      1.64372    -2.43380    -0.01262
H      3.37052    -1.38022     0.30711
H      0.97091    -2.51776    -0.72081
H      3.13853    -1.92131    -1.36005
H      2.19770    -0.55500    -0.73185
C     -1.10699    -3.67869    -1.91821
O     -0.32297    -2.50946    -1.81485
H     -1.81600    -3.61071    -2.74560
H     -0.93044    -1.74095    -1.78432
H     -0.45382    -4.53148    -2.09572
H     -1.66830    -3.85574    -0.99660
C     -1.69102     3.08539    -0.94314
O     -1.09104     1.83140    -0.68650
H     -2.77311     2.95955    -0.95897
H     -0.11879     1.97827    -0.61427
H     -1.44322     3.80452    -0.15953
H     -1.36938     3.49086    -1.90517
C      2.11659     3.44257    -0.30653
O      1.47572     2.18008    -0.29925
H      1.83664     3.97629    -1.21338
H      1.62603     1.78909     0.59088
H      1.82590     4.04209     0.55905
H      3.20110     3.32481    -0.29787
C      0.60311     1.93409     2.92560
O      1.53708     1.17940     2.16944
H      1.02915     2.91671     3.12374
H      1.24206     0.24068     2.20951
H     -0.33981     2.06311     2.38656
H      0.39089     1.45283     3.87983
