 30
-579.0398900894237
C      2.50933     1.14065     0.24549
O      2.05498    -0.15801    -0.14127
H      1.67184     1.79969     0.47193
H      1.37537    -0.05999    -0.82171
H      3.12994     1.02416     1.13268
H      3.11290     1.58330    -0.54789
C     -2.15532     0.05758     1.47494
O     -1.55561    -0.99680     0.72802
H     -2.27453    -0.22952     2.51924
H     -0.76227    -1.29846     1.22525
H     -1.56072     0.97273     1.42755
H     -3.13928     0.25174     1.05347
C      1.26448    -2.90378     1.71118
O      0.83517    -1.55500     1.80692
H      2.34263    -2.97982     1.85795
H      1.38645    -1.02929     1.19015
H      0.76521    -3.48034     2.48678
H      1.01449    -3.32999     0.73542
C     -1.46717     3.37306    -1.28147
O     -0.36523     2.63337    -0.78834
H     -2.41854     2.88020    -1.05784
H     -0.41930     1.73765    -1.14744
H     -1.46273     4.34771    -0.79469
H     -1.40238     3.52520    -2.36257
C     -0.67612    -1.12648    -2.52917
O     -0.55746    -0.11353    -1.54317
H     -0.35240    -0.71905    -3.48311
H     -0.99838    -0.45694    -0.72798
H     -0.04948    -1.98324    -2.27127
H     -1.71017    -1.46181    -2.61638
