 60
-1158.0934986190387
C      0.29768     1.97581    -3.18468
O     -0.30548     0.69192    -3.28366
H      1.36687     1.92876    -3.40637
H      0.25620     0.03585    -2.84709
H     -0.17131     2.62280    -3.92353
H      0.16060     2.39524    -2.19004
C      2.10583     4.10298     0.61380
O      1.52013     3.06634     1.37547
H      2.67720     3.70609    -0.23385
H      0.73398     2.75719     0.90342
H      1.35713     4.79806     0.22105
H      2.79055     4.66366     1.25049
C      2.65919     0.47244    -0.56542
O      2.53004    -0.89729    -0.18258
H      3.19693     1.01878     0.20508
H      1.88667    -1.29266    -0.80660
H      3.22396     0.55014    -1.49619
H      1.68852     0.94599    -0.70065
C     -0.87589     0.85408     3.24453
O     -0.62341     0.21935     1.99589
H     -0.17776     1.67391     3.41025
H      0.22698    -0.25668     2.07681
H     -1.88695     1.25692     3.21982
H     -0.80344     0.14787     4.06875
C     -2.14026    -2.14241     0.08617
O     -1.79996    -2.17463    -1.29710
H     -1.37243    -2.67901     0.64180
H     -2.32545    -1.49295    -1.76068
H     -2.18949    -1.12324     0.46697
H     -3.09573    -2.64117     0.25406
C      2.74466    -0.12599     3.01814
O      1.83332    -0.98590     2.33365
H      2.65754    -0.31970     4.08446
H      2.14992    -1.07076     1.39890
H      3.76776    -0.33590     2.70719
H      2.51633     0.92322     2.82338
C     -3.77345     0.03320    -3.71229
O     -2.84505    -0.04759    -2.64501
H     -3.29085    -0.16837    -4.67034
H     -2.00030     0.35372    -2.92433
H     -4.55392    -0.70778    -3.54674
H     -4.23230     1.02414    -3.74869
C      1.09118    -2.68077    -2.86304
O      0.70449    -1.71681    -1.89442
H      0.54735    -2.51827    -3.79494
H     -0.21762    -1.94224    -1.61422
H      2.15926    -2.57701    -3.04968
H      0.88866    -3.69023    -2.50522
C     -0.68368    -2.88302     3.66059
O      0.40729    -2.25195     4.28960
H     -1.30172    -3.34221     4.43056
H      0.97627    -1.90183     3.58998
H     -1.30335    -2.17442     3.10350
H     -0.35497    -3.67021     2.97421
C     -2.01271     2.37467    -0.34112
O     -0.69188     1.99849     0.00669
H     -1.97464     3.01844    -1.21870
H     -0.75628     1.25990     0.64194
H     -2.62336     1.50642    -0.58731
H     -2.49217     2.93270     0.46608
