 42
-810.6689684329398
C     -3.34598    -1.56343     0.73489
O     -2.26669    -1.44984     1.64485
H     -4.16257    -0.89322     1.00629
H     -2.01948    -0.49931     1.68672
H     -3.03456    -1.32877    -0.28642
H     -3.71461    -2.58697     0.75956
C      0.97514    -2.42380     1.36572
O     -0.17393    -2.74122     0.59110
H      0.98422    -3.00245     2.28918
H     -0.95563    -2.39360     1.07659
H      1.85858    -2.68671     0.78620
H      1.01502    -1.36049     1.61181
C     -1.60861     1.64900     0.22482
O     -1.51647     1.11145     1.53901
H     -2.62461     2.00327     0.06061
H     -0.58030     1.22584     1.80850
H     -0.92451     2.48636     0.09919
H     -1.37795     0.89803    -0.53177
C      0.17771     1.35776    -3.32576
O      0.88544     0.71293    -2.28821
H      0.09721     0.71422    -4.20349
H      0.41920    -0.12468    -2.08150
H     -0.83085     1.63514    -3.00841
H      0.71529     2.26138    -3.60964
C     -0.94691    -2.38995    -2.67965
O     -0.41163    -1.50769    -1.71309
H     -1.13150    -1.83910    -3.60219
H     -0.27940    -2.02241    -0.87964
H     -0.25607    -3.20773    -2.88906
H     -1.89355    -2.81046    -2.33482
C      1.41516     2.49075     2.92046
O      1.06644     1.44988     2.02692
H      0.84769     2.36651     3.84165
H      1.53598     1.61924     1.18235
H      2.47922     2.45729     3.16371
H      1.18506     3.47046     2.49445
C      3.55424     1.27073    -0.41309
O      2.25374     1.82872    -0.33467
H      3.54043     0.20590    -0.16410
H      1.74069     1.45874    -1.08726
H      3.96508     1.38696    -1.41649
H      4.20423     1.79075     0.28917
