 54
-1042.280196097975
C      1.83641    -1.95308     3.31622
O      1.22959    -1.30084     2.21264
H      1.36815    -1.65277     4.25453
H      0.27713    -1.23344     2.41691
H      1.75872    -3.03722     3.21269
H      2.89391    -1.68665     3.35043
C      1.36603     1.53473    -3.69505
O      1.30392     1.11405    -2.34063
H      2.35910     1.35930    -4.11276
H      1.45393     0.14569    -2.31572
H      0.62387     1.01754    -4.30003
H      1.17047     2.60631    -3.73224
C     -2.06111    -1.93325    -0.26277
O     -1.41932    -1.22524    -1.31622
H     -1.79721    -1.51766     0.70956
H     -1.41889    -0.26583    -1.10780
H     -3.14582    -1.91163    -0.38344
H     -1.72535    -2.96794    -0.30645
C      2.33483    -1.97077    -1.05716
O      1.40060    -1.54850    -2.04891
H      3.32502    -1.66226    -1.38838
H      0.49755    -1.71647    -1.73719
H      2.12649    -1.52278    -0.08538
H      2.31983    -3.05685    -0.96106
C     -0.48822    -1.54888    -4.81087
O     -1.30946    -0.61755    -4.12751
H      0.52911    -1.55693    -4.41698
H     -1.42422    -0.91315    -3.21599
H     -0.89003    -2.56430    -4.75011
H     -0.44998    -1.25507    -5.86042
C     -1.54215    -1.29435     4.56172
O     -1.25698    -0.81372     3.25950
H     -0.96810    -0.75297     5.31612
H     -1.23001     0.16869     3.31823
H     -2.60412    -1.19131     4.79039
H     -1.27654    -2.35021     4.61305
C     -1.88991     2.08371    -2.10575
O     -1.06486     1.42395    -1.15756
H     -1.59717     1.83619    -3.12491
H     -0.15376     1.42957    -1.52573
H     -2.92178     1.76949    -1.95172
H     -1.83887     3.16627    -1.97070
C      1.93962     2.01915     1.21346
O      1.68869     1.41805     2.47473
H      2.86443     1.64527     0.77343
H      1.69543     0.45294     2.34774
H      1.13062     1.83840     0.50430
H      2.03720     3.09137     1.36585
C     -1.50410     2.61194     2.37259
O     -0.83815     1.80471     3.33330
H     -2.56654     2.60858     2.60394
H      0.11885     1.82246     3.12340
H     -1.14700     3.64119     2.42447
H     -1.36286     2.24121     1.35605
