 54
-1042.2897282784063
C      4.29195    -0.84406     0.45935
O      3.64421    -0.47826    -0.73900
H      4.19068    -1.91460     0.65361
H      2.71842    -0.78966    -0.70477
H      5.34930    -0.60707     0.36492
H      3.89248    -0.29264     1.31583
C      0.58414    -0.31009    -2.01692
O      1.05624    -1.04801    -0.88970
H      1.40731     0.27934    -2.42048
H      0.29113    -1.51425    -0.50738
H      0.23982    -0.98557    -2.80247
H     -0.22614     0.36964    -1.74245
C     -3.19353    -1.11294    -2.27461
O     -3.35047    -1.70003    -0.98461
H     -4.13587    -1.14431    -2.81808
H     -3.75621    -0.99929    -0.42134
H     -2.86223    -0.07737    -2.19291
H     -2.45382    -1.68498    -2.83321
C      4.44362     2.83116    -0.94731
O      3.61365     2.07113    -1.79262
H      4.07409     2.83275     0.08350
H      3.70231     1.14914    -1.51573
H      5.47320     2.45961    -0.93432
H      4.45712     3.85964    -1.30622
C     -1.07215    -3.67285     0.48210
O     -1.11603    -2.28297     0.20134
H     -0.19864    -3.88402     1.09834
H     -1.98041    -2.08642    -0.25817
H     -1.96532    -3.97624     1.02683
H     -1.00172    -4.24542    -0.44204
C     -3.71457     0.21044     1.84260
O     -4.00405     0.43421     0.46689
H     -4.06837     1.04268     2.45134
H     -3.37215     1.10312     0.14121
H     -4.22859    -0.69563     2.16192
H     -2.64345     0.08603     2.00610
C     -1.72496     3.29933    -0.92220
O     -1.95356     2.02091    -0.35594
H     -2.11330     3.30924    -1.93956
H     -1.25086     1.87261     0.31227
H     -2.22519     4.07758    -0.34232
H     -0.65835     3.52459    -0.95971
C      1.17667    -1.49437     2.55471
O     -0.11000    -0.93799     2.36696
H      1.12153    -2.40737     3.15008
H     -0.54938    -1.43704     1.65640
H      1.67036    -1.71687     1.60888
H      1.78881    -0.77894     3.10136
C      1.27870     1.84268     1.01456
O     -0.04634     1.56653     1.43785
H      1.51584     1.35072     0.07348
H     -0.05056     0.68806     1.86999
H      1.39444     2.91540     0.87676
H      2.01224     1.52755     1.75760
