 36
-694.8456693672899
C     -4.15002     2.07636     0.55077
O     -2.74626     1.93363     0.59817
H     -4.39314     3.12995     0.68305
H     -2.54752     0.98892     0.68654
H     -4.55758     1.75002    -0.41172
H     -4.64431     1.50829     1.34372
C      2.85894    -2.13757    -0.46018
O      1.45893    -2.12600    -0.72856
H      3.09009    -2.77981     0.39078
H      1.01090    -1.92874     0.10799
H      3.36726    -2.52708    -1.34055
H      3.23558    -1.13363    -0.25203
C      0.89338    -0.64574     2.97990
O      0.56232    -0.68800     1.60274
H      0.45230     0.23116     3.45637
H      0.91354     0.13054     1.17020
H      0.50084    -1.54225     3.45306
H      1.97629    -0.61754     3.11316
C      1.91900     0.21775    -3.41573
O      1.13633     0.15281    -2.23584
H      2.96348     0.44370    -3.18416
H      1.20166    -0.75076    -1.87869
H      1.87695    -0.72521    -3.96533
H      1.52138     1.00777    -4.05001
C     -1.99468    -1.39840    -0.45793
O     -2.07072    -0.75215     0.80367
H     -2.92707    -1.22128    -0.99230
H     -1.18543    -0.79110     1.19937
H     -1.16997    -1.00988    -1.05765
H     -1.86836    -2.47549    -0.33344
C      0.63646     2.61037     0.38566
O      1.37258     1.39655     0.21383
H     -0.38081     2.51027     0.01063
H      1.31878     1.12757    -0.72481
H      0.59380     2.83147     1.45129
H      1.13978     3.43517    -0.12022
