 36
-694.844379944601
C      3.84861     1.52618    -1.59937
O      3.00650     2.67841    -1.62974
H      4.37492     1.39413    -2.54748
H      3.54444     3.44863    -1.81454
H      4.57998     1.58777    -0.78837
H      3.21555     0.65941    -1.42719
C      1.45933     2.10085     1.36552
O      1.32276     0.70019     1.55030
H      0.56118     2.52826     0.91070
H      1.41280     0.26856     0.67606
H      1.59934     2.56339     2.34052
H      2.31189     2.33447     0.73115
C      0.32629     0.47410    -1.66767
O      0.98839    -0.48685    -0.84735
H     -0.73559     0.52188    -1.42469
H      0.36386    -1.23325    -0.74117
H      0.77675     1.45260    -1.51667
H      0.43780     0.21227    -2.72086
C     -1.27977    -3.03333    -1.83953
O     -1.00551    -2.23621    -0.70069
H     -1.59500    -2.42032    -2.68755
H     -1.78222    -1.67546    -0.49851
H     -0.36929    -3.56568    -2.10985
H     -2.05868    -3.76775    -1.62571
C     -0.92494    -1.42197     2.66762
O     -1.13515    -0.13754     2.08950
H     -1.86204    -1.76429     3.10507
H     -0.24240     0.24853     1.92828
H     -0.59506    -2.13805     1.91391
H     -0.17460    -1.37026     3.45662
C     -4.17033    -0.16993     0.42759
O     -2.81537    -0.34414     0.05875
H     -4.31960     0.79152     0.92288
H     -2.25821    -0.12697     0.84014
H     -4.77897    -0.19444    -0.47462
H     -4.50430    -0.96458     1.10023
