 42
-810.6668079048433
C     -2.75787    -1.38365     1.47099
O     -2.76052    -1.55066     0.05890
H     -2.08738    -0.57335     1.76101
H     -2.66886    -0.64534    -0.31398
H     -3.76282    -1.16162     1.83318
H     -2.41876    -2.30869     1.93659
C      1.66197    -0.56989     2.49282
O      1.81897     0.19266     1.30682
H      2.41882    -1.35152     2.54688
H      1.77242    -0.44414     0.54491
H      1.77267     0.09413     3.34650
H      0.67336    -1.03357     2.52563
C     -0.89463    -3.63964    -1.85549
O     -0.61674    -2.99224    -0.62536
H     -0.00208    -4.17136    -2.18059
H     -1.43876    -2.51864    -0.36485
H     -1.70486    -4.35964    -1.73986
H     -1.17516    -2.91857    -2.62662
C      4.10659     1.60091    -0.94982
O      3.08915     2.26392    -0.22335
H      3.71166     0.74562    -1.50339
H      2.77083     1.65415     0.45306
H      4.53001     2.30917    -1.66136
H      4.90703     1.24869    -0.29368
C     -3.37465     1.84327    -0.34592
O     -2.29197     0.97494    -0.62950
H     -3.36274     2.15903     0.69868
H     -1.55037     1.26437    -0.05727
H     -3.33255     2.73006    -0.98189
H     -4.31138     1.32311    -0.54333
C     -0.04808     3.16164     0.74436
O     -0.37470     1.80254     1.02536
H      0.29756     3.66702     1.64732
H      0.45523     1.31154     1.17124
H      0.72010     3.23352    -0.02499
H     -0.94948     3.66259     0.38915
C      1.05681    -0.47612    -1.83372
O      1.47700    -1.34405    -0.77935
H     -0.02701    -0.37134    -1.84726
H      0.77265    -2.02466    -0.68360
H      1.50827     0.50502    -1.69518
H      1.38617    -0.87440    -2.79312
