 36
-694.8412940691306
C     -0.80797     3.69340    -0.32098
O     -0.86378     2.44867    -0.99516
H     -1.71256     4.25118    -0.55746
H     -0.04411     1.97596    -0.77777
H     -0.75079     3.55298     0.76104
H      0.05803     4.27243    -0.64827
C      2.67653     0.98761    -0.57068
O      1.29101     0.98826    -0.21911
H      3.23823     1.63976     0.09787
H      1.18264     0.53158     0.62685
H      3.08543    -0.01825    -0.51952
H      2.75543     1.36473    -1.58789
C      3.20195    -2.71457     0.85350
O      3.18229    -1.53288     1.63405
H      2.62729    -2.59349    -0.06825
H      2.26739    -1.38897     1.90295
H      4.23733    -2.93177     0.59190
H      2.79802    -3.56879     1.40446
C     -0.85206    -0.71756     2.39552
O      0.36979    -1.03474     1.72933
H     -0.61608    -0.04705     3.21830
H      0.14735    -1.47548     0.89157
H     -1.54577    -0.22723     1.71200
H     -1.31524    -1.61906     2.79840
C     -4.19986     1.13022    -0.89838
O     -2.92550     0.61036    -0.57814
H     -4.40237     2.06574    -0.36784
H     -2.25924     1.28059    -0.79067
H     -4.30141     1.31385    -1.97167
H     -4.95045     0.39823    -0.60105
C     -1.18425    -2.09625    -1.57087
O      0.02486    -1.63619    -0.96290
H     -1.17766    -1.91108    -2.64687
H      0.21838    -0.74216    -1.26181
H     -1.24416    -3.16934    -1.40095
H     -2.04712    -1.60328    -1.13034
