 54
-1042.2840268817563
C     -0.70848    -3.66030     1.29800
O     -0.56288    -2.52142     0.47423
H     -0.80775    -4.56862     0.69741
H     -1.41832    -2.06202     0.49251
H      0.17204    -3.77007     1.93513
H     -1.58801    -3.57931     1.94100
C      0.71036     2.13396    -4.38814
O      1.30638     2.21488    -3.10045
H      0.93523     3.02719    -4.97208
H      2.19776     1.80199    -3.15073
H      1.05873     1.25404    -4.93026
H     -0.37130     2.06519    -4.27117
C      2.08248    -2.17237    -1.77597
O      2.37246    -0.87152    -1.27076
H      1.79166    -2.12265    -2.82866
H      1.54039    -0.41341    -1.08562
H      2.98523    -2.77148    -1.68642
H      1.28235    -2.64246    -1.20484
C      4.59106     1.53246    -2.21471
O      3.60135     0.82639    -2.95071
H      4.16568     2.00167    -1.32351
H      3.27654     0.10357    -2.37669
H      5.39527     0.86313    -1.90736
H      5.00707     2.30678    -2.85600
C     -4.16555    -2.31533     0.85387
O     -3.05950    -1.43178     0.85570
H     -5.09400    -1.77935     0.64633
H     -2.98658    -1.04530     1.75476
H     -4.01672    -3.06507     0.07695
H     -4.26560    -2.82815     1.81305
C     -1.60428    -1.26095     3.96659
O     -2.55319    -0.44683     3.29873
H     -2.10799    -2.16478     4.30863
H     -2.14287     0.44520     3.20017
H     -0.78089    -1.54360     3.30545
H     -1.19191    -0.75054     4.83718
C     -1.20518     0.59066    -1.70919
O      0.03882     1.01871    -1.16001
H     -1.04555     0.01906    -2.62525
H      0.48681     1.54374    -1.87067
H     -1.72509    -0.03427    -0.98846
H     -1.83214     1.45281    -1.94158
C      1.67610     0.43022     1.77064
O      0.90964     1.56731     1.40339
H      2.57304     0.35041     1.15605
H      0.64640     1.45808     0.47400
H      1.98265     0.55058     2.80808
H      1.09913    -0.49311     1.67492
C     -2.19140     2.40464     1.69058
O     -1.38749     1.86603     2.73656
H     -2.10936     3.49131     1.66723
H     -0.47688     1.79838     2.37518
H     -1.89278     1.99966     0.72144
H     -3.23028     2.13556     1.87584
