 60
-1158.1010243244393
C      2.50868     2.06543    -2.20990
O      1.51234     1.73979    -3.15727
H      2.10852     2.61239    -1.35375
H      0.80161     1.28641    -2.69233
H      3.02153     1.17985    -1.83303
H      3.24438     2.69798    -2.70575
C      3.65008    -2.03546     0.91771
O      3.63178    -1.01391    -0.06939
H      3.97333    -2.98328     0.48613
H      2.98057    -1.29180    -0.75217
H      4.35502    -1.75283     1.69845
H      2.66262    -2.16974     1.36373
C     -1.51365    -0.41044    -2.04437
O     -0.30645     0.18830    -1.58619
H     -2.09004    -0.80894    -1.21243
H     -0.54690     0.82507    -0.87208
H     -2.11956     0.31273    -2.59077
H     -1.26399    -1.22466    -2.72363
C      2.10214    -1.60867    -3.17001
O      1.71038    -1.59458    -1.80716
H      1.26395    -1.88294    -3.81220
H      0.99436    -0.93749    -1.68686
H      2.48799    -0.64277    -3.48943
H      2.88090    -2.35970    -3.29303
C      3.50177     2.00400     1.67368
O      2.59285     1.18049     0.97136
H      4.32441     2.31615     1.02903
H      3.10790     0.46659     0.52688
H      2.96385     2.89161     2.00295
H      3.90857     1.49261     2.54992
C     -4.07086    -1.58140     2.48885
O     -3.68312    -1.28730     1.15730
H     -3.39836    -1.10125     3.20480
H     -2.76688    -1.62370     1.04580
H     -5.08155    -1.20899     2.65361
H     -4.06111    -2.65744     2.66834
C     -4.61589     1.57309    -0.47205
O     -3.78473     1.34302     0.65468
H     -4.27337     2.47230    -0.98414
H     -3.81974     0.38109     0.84693
H     -4.57107     0.73576    -1.17207
H     -5.65173     1.72306    -0.16500
C     -0.65774    -3.17295     0.11253
O     -1.18838    -2.11375     0.89314
H     -0.76782    -4.12009     0.64071
H     -0.45497    -1.53867     1.19309
H     -1.20181    -3.24158    -0.82970
H      0.39309    -3.00830    -0.11366
C     -0.03884     0.17535     2.95221
O      0.64280    -0.43953     1.87425
H      0.66446     0.60628     3.66889
H      1.31367     0.18142     1.52319
H     -0.71361     0.95287     2.59326
H     -0.62622    -0.58188     3.47463
C     -0.67035     3.07148     0.71329
O     -1.20792     1.86399     0.19800
H     -1.18066     3.35709     1.63534
H     -2.16324     1.78954     0.42552
H      0.38900     2.92904     0.92779
H     -0.77632     3.88303    -0.00800
