 42
-810.6654385524267
C     -3.10687     0.61607     2.14835
O     -2.13554    -0.02625     1.34239
H     -2.97790     1.69918     2.12944
H     -1.93120     0.58307     0.59548
H     -4.11146     0.37446     1.79591
H     -3.01216     0.26695     3.17660
C      0.56212     0.99247     2.65308
O      0.23810    -0.38216     2.47407
H      1.64761     1.10402     2.64718
H     -0.67605    -0.39245     2.10571
H      0.13611     1.59724     1.85196
H      0.18658     1.35361     3.61083
C     -0.11549     0.61772    -3.35577
O      0.27272     1.41867    -2.24569
H      0.75535     0.32143    -3.94099
H      1.10822     1.04008    -1.90419
H     -0.63150    -0.27837    -3.01403
H     -0.77704     1.20255    -3.99442
C      3.30573     1.36356    -0.60916
O      2.50601     0.36030    -1.21486
H      4.17352     0.92391    -0.11470
H      2.35665    -0.32776    -0.54171
H      3.65473     2.04501    -1.38260
H      2.73225     1.93059     0.12958
C     -1.17620    -2.62948    -0.15779
O     -0.44253    -1.81631    -1.05717
H     -0.94161    -2.39989     0.88428
H      0.43994    -1.67421    -0.69820
H     -2.23912    -2.44368    -0.30603
H     -0.97767    -3.69102    -0.33544
C      2.38667    -2.69310     1.15355
O      1.93532    -1.41926     0.71452
H      3.33446    -2.59624     1.68180
H      1.35116    -1.04914     1.41987
H      1.64866    -3.14371     1.81585
H      2.52155    -3.33496     0.28545
C     -2.83033     1.95520    -1.31192
O     -1.66211     1.81881    -0.52113
H     -3.70937     1.80555    -0.68403
H     -0.90446     1.73760    -1.14730
H     -2.88437     2.95187    -1.75206
H     -2.85267     1.21611    -2.11476
