 24
-463.22945695370396
C      1.11216    -2.18595     1.19201
O      0.95538    -0.80442     1.46046
H      0.71561    -2.74636     2.03548
H      1.34771    -0.31124     0.71104
H      0.57257    -2.48214     0.28758
H      2.16524    -2.44466     1.06862
C     -1.60452     0.18005    -2.13973
O     -0.99436     1.01417    -1.17197
H     -1.26605     0.49362    -3.12573
H     -1.34978     0.74638    -0.29685
H     -1.33123    -0.86873    -1.98982
H     -2.69117     0.26436    -2.10298
C     -1.76695     1.14511     2.22688
O     -1.57974     0.10079     1.28280
H     -0.96227     1.88218     2.17008
H     -0.71634    -0.32075     1.47931
H     -2.71300     1.63650     2.00755
H     -1.80693     0.74715     3.24158
C      2.15504    -0.05747    -1.95415
O      1.62073     0.54394    -0.78925
H      2.69477     0.67815    -2.55224
H      0.71741     0.85499    -1.00941
H      2.85204    -0.84317    -1.66413
H      1.36627    -0.49816    -2.56665
