 54
-1042.2810074122713
C      2.68339    -1.55180    -2.70422
O      1.41117    -1.76972    -2.11262
H      3.48194    -1.86887    -2.03213
H      1.30328    -1.11700    -1.40240
H      2.73789    -2.14503    -3.61512
H      2.83495    -0.50160    -2.95718
C      2.60374     1.31803    -0.24397
O      1.41510     0.76505    -0.79556
H      2.87282     0.72333     0.62204
H      1.20976     1.18633    -1.66068
H      3.41539     1.29833    -0.97259
H      2.44662     2.35289     0.06657
C     -1.73632    -1.22808    -3.45162
O     -0.43336    -0.86596    -3.90037
H     -1.99268    -2.22856    -3.80082
H      0.20963    -1.38712    -3.37985
H     -1.80324    -1.20256    -2.36246
H     -2.45041    -0.52250    -3.87369
C     -3.41748     1.01751     2.66707
O     -2.16232     0.36861     2.57381
H     -3.83049     1.21306     1.67653
H     -1.59499     0.89843     1.96477
H     -4.10225     0.36935     3.20923
H     -3.32263     1.96412     3.20207
C     -0.53122    -2.29493     0.72128
O     -1.71103    -1.58222     0.38279
H     -0.09903    -2.69251    -0.19575
H     -2.01644    -1.10772     1.16359
H      0.21185    -1.66767     1.21724
H     -0.75916    -3.14803     1.36414
C     -0.63207    -2.40726     4.30342
O     -0.29190    -1.06294     4.01184
H      0.13248    -3.07131     3.89767
H     -1.04821    -0.61941     3.59461
H     -0.68355    -2.55749     5.38252
H     -1.59428    -2.67644     3.86282
C      1.26133     2.04850    -4.33074
O      0.53947     1.53061    -3.22560
H      1.89475     1.28244    -4.78425
H      0.08302     0.71057    -3.52791
H      0.58053     2.43173    -5.09226
H      1.89308     2.86452    -3.98199
C      1.73359     1.49176     3.18631
O      1.77737     0.16173     2.70562
H      0.86510     2.02448     2.79444
H      1.13364    -0.34825     3.22011
H      1.70361     1.52869     4.27831
H      2.63695     2.01071     2.86049
C     -1.53726     1.90439    -0.40623
O     -0.73737     1.60902     0.73628
H     -0.95067     2.39890    -1.17907
H      0.08887     1.19850     0.41265
H     -1.97317     0.99588    -0.82408
H     -2.33707     2.57811    -0.10175
