 42
-810.6658789927873
C     -3.50966     2.19423     1.00045
O     -2.40251     1.31246     0.97064
H     -3.35362     3.04990     0.33958
H     -1.59726     1.86735     1.05121
H     -4.39728     1.65526     0.67281
H     -3.68046     2.56280     2.01399
C      3.19530    -1.30164    -1.70654
O      2.08070    -1.02670    -0.87722
H      2.89957    -1.92408    -2.55223
H      1.34640    -0.69083    -1.45311
H      3.63702    -0.37726    -2.08252
H      3.93893    -1.83430    -1.11774
C      0.92342    -4.18539    -0.42182
O      1.10953    -3.17010     0.53886
H      0.32157    -3.84019    -1.26864
H      1.48669    -2.41136     0.07046
H      1.87499    -4.55815    -0.81255
H      0.40301    -5.01763     0.05025
C     -0.10835     3.51610     2.37215
O     -0.18246     2.78641     1.16037
H     -0.71559     4.41364     2.27349
H      0.59195     2.18748     1.13034
H     -0.48573     2.92886     3.21323
H      0.91710     3.81383     2.58895
C     -2.13544    -1.72513    -0.55149
O     -2.15326    -0.40227    -1.07311
H     -2.03000    -2.41775    -1.38556
H     -2.30412     0.21190    -0.32317
H     -1.30527    -1.88020     0.14172
H     -3.07087    -1.95103    -0.03906
C      1.06992    -0.08222     2.10484
O      1.69088     0.87179     1.23422
H      1.27601     0.20775     3.13392
H      2.04120     0.38112     0.47662
H     -0.00980    -0.09728     1.94598
H      1.45750    -1.08412     1.93127
C      0.28219     1.43381    -2.44594
O      0.15460     0.02189    -2.31630
H      1.24859     1.65768    -2.89489
H     -0.75065    -0.14484    -1.96189
H     -0.49678     1.82645    -3.09899
H      0.21683     1.93242    -1.47777
