 54
-1042.2835594674098
C      2.43143     0.86538     0.24463
O      1.06472     1.10875    -0.07986
H      2.71815    -0.10673    -0.14350
H      0.83497     2.03802     0.18925
H      3.06861     1.63326    -0.19006
H      2.56621     0.86646     1.32665
C     -3.76767     0.80864     2.40238
O     -2.60737     1.28913     1.75315
H     -3.55268     0.50080     3.42960
H     -1.96766     0.54784     1.67192
H     -4.50543     1.60930     2.42469
H     -4.19158    -0.03991     1.86395
C     -1.51511     0.47499    -1.89561
O     -0.20631    -0.04442    -2.06032
H     -1.77959     0.57721    -0.84262
H      0.36790     0.40092    -1.40495
H     -1.60152     1.45456    -2.36914
H     -2.22561    -0.20051    -2.37099
C      3.09162    -4.51116    -2.89011
O      2.82332    -3.29349    -2.22824
H      3.10080    -4.38354    -3.97519
H      2.06193    -2.87951    -2.68153
H      4.07065    -4.86658    -2.57682
H      2.34611    -5.27132    -2.63882
C      0.71454    -2.94985     0.22881
O      2.06394    -2.55026     0.36219
H      0.12952    -2.23211    -0.34929
H      2.51712    -2.81424    -0.45250
H      0.63115    -3.92896    -0.24929
H      0.26693    -3.02120     1.21894
C     -0.48378    -3.02095    -3.54085
O      0.64288    -2.19478    -3.33873
H     -0.82500    -3.45854    -2.59839
H      0.33249    -1.37674    -2.90025
H     -1.31359    -2.46219    -3.97742
H     -0.22013    -3.82880    -4.22250
C     -1.95393     4.27672     3.30246
O     -1.11263     3.23353     2.84880
H     -1.33203     5.11436     3.61301
H     -1.69363     2.51510     2.51986
H     -2.63498     4.61172     2.51530
H     -2.55144     3.95208     4.15738
C      0.15330    -0.44616     2.80577
O     -0.59229    -0.42198     1.59405
H     -0.47933    -0.87829     3.57793
H      0.00764    -0.09513     0.90141
H      1.04512    -1.06122     2.69844
H      0.44146     0.55814     3.12103
C     -0.69449     3.96502    -0.26950
O      0.33845     3.53146     0.61140
H     -0.88645     5.02772    -0.13025
H     -0.05581     3.52298     1.50988
H     -0.36619     3.81049    -1.29623
H     -1.61929     3.40930    -0.10002
