 42
-810.6631656817203
C     -1.96303     2.32864    -0.65586
O     -1.46463     1.14516    -0.03791
H     -2.71704     2.02822    -1.38081
H     -0.64166     1.36305     0.44148
H     -2.42550     2.98492     0.08222
H     -1.16373     2.85857    -1.17252
C     -0.75776    -2.53206     3.28422
O     -0.43463    -2.62677     1.90759
H      0.01082    -3.04325     3.86099
H     -1.19015    -2.24661     1.41082
H     -0.80559    -1.48718     3.60471
H     -1.71973    -3.00189     3.49162
C      2.58828     2.20043    -1.88674
O      1.44688     2.78184    -1.28286
H      2.41159     1.15301    -2.14648
H      1.33309     2.35578    -0.42439
H      2.80836     2.75234    -2.79940
H      3.46466     2.25282    -1.23449
C     -0.04227     0.48209    -3.50177
O     -0.07407    -0.38170    -2.37963
H     -1.01120     0.51241    -4.00915
H     -0.50870     0.07283    -1.64951
H      0.24195     1.49606    -3.21761
H      0.69420     0.09713    -4.20723
C     -2.70909    -1.97668    -0.68362
O     -2.38389    -1.36244     0.55604
H     -1.82017    -2.11006    -1.30173
H     -2.13314    -0.44009     0.37939
H     -3.15035    -2.94994    -0.47811
H     -3.43202    -1.37427    -1.23628
C      1.09842     1.78961     2.43832
O      1.00801     1.36051     1.08997
H      0.61681     1.06632     3.09793
H      1.31500     0.41128     1.05684
H      2.14244     1.89721     2.73042
H      0.59804     2.75231     2.53345
C      2.21603    -1.75045    -0.03576
O      1.64487    -1.14568     1.12113
H      3.02561    -1.11528    -0.39485
H      0.94705    -1.75481     1.45977
H      2.62816    -2.72958     0.20744
H      1.47535    -1.85466    -0.82860
