 36
-694.8497559261994
C      0.40240     2.77784    -3.21199
O      1.37267     2.93486    -2.19400
H     -0.48264     3.39183    -3.02524
H      0.98334     2.64529    -1.36346
H      0.85070     3.10266    -4.14983
H      0.08741     1.73684    -3.31862
C      1.47434     0.78853     0.94242
O      0.45352     1.28201     0.08134
H      2.26144     0.31764     0.35889
H      0.39936     0.63734    -0.66457
H      1.89146     1.62337     1.50410
H      1.07491     0.05719     1.64729
C      1.18264    -3.22104     0.68078
O      0.16631    -2.48982     0.02195
H      1.84524    -2.55205     1.23746
H     -0.44503    -2.14223     0.70918
H      0.76023    -3.94823     1.37607
H      1.76859    -3.75548    -0.06544
C      1.78523    -0.68471    -2.50005
O      0.58319    -0.57035    -1.75591
H      2.11670     0.30434    -2.80711
H      0.46501    -1.38539    -1.21988
H      2.57507    -1.14881    -1.90547
H      1.62489    -1.29353    -3.39071
C     -2.72325    -2.10630     1.96865
O     -1.45519    -1.47679     1.86481
H     -2.60211    -3.17700     1.80751
H     -1.62031    -0.50709     1.80823
H     -3.14668    -1.94836     2.96231
H     -3.41681    -1.71421     1.22258
C     -1.57926     1.94508     2.73774
O     -1.76668     1.14333     1.58294
H     -2.15524     1.51664     3.55747
H     -1.05503     1.36672     0.95209
H     -0.52751     1.98154     3.02907
H     -1.92973     2.96276     2.56141
