 36
-694.8577812750826
C      0.05133     1.73826    -1.62580
O      0.55562     2.42378    -0.48042
H      0.63422     0.83533    -1.81672
H     -0.11543     2.31954     0.22231
H     -0.98955     1.44855    -1.47612
H      0.12143     2.38857    -2.49824
C      2.35545     0.80384     1.71336
O      2.62243     0.90412     0.31749
H      2.51187    -0.22747     2.03098
H      2.00190     1.58269    -0.02622
H      3.03138     1.44655     2.27770
H      1.32441     1.08553     1.92977
C      2.93703    -2.44873    -0.19860
O      2.09832    -1.47135    -0.78429
H      3.97333    -2.10992    -0.17016
H      2.36452    -0.59571    -0.42278
H      2.61724    -2.68239     0.82016
H      2.88701    -3.35692    -0.79712
C     -0.80434    -2.22706    -2.31658
O     -0.48946    -1.98910    -0.95633
H     -1.88060    -2.36928    -2.40767
H      0.47570    -1.81510    -0.90193
H     -0.50876    -1.38098    -2.94067
H     -0.30229    -3.12513    -2.67881
C     -3.07042    -1.36021     1.12402
O     -2.26318    -0.52900     0.31144
H     -3.65940    -0.73776     1.79777
H     -1.60567    -1.10613    -0.14291
H     -3.75621    -1.94972     0.51142
H     -2.45904    -2.03974     1.72092
C     -2.45733     2.53789     1.69069
O     -1.35401     1.74068     1.31243
H     -3.04270     2.04733     2.47214
H     -1.71456     0.89362     0.97072
H     -2.09092     3.48733     2.07803
H     -3.11506     2.73403     0.83982
