 36
-694.8468657040022
C      3.58846     2.24471    -1.87311
O      2.27652     2.00522    -1.40920
H      3.68766     3.30627    -2.09700
H      2.14195     1.04232    -1.39672
H      4.33645     1.98073    -1.11825
H      3.80777     1.67988    -2.78364
C     -0.72714     2.58981    -0.01449
O     -0.98465     1.21094     0.26195
H     -1.12826     3.17238     0.81455
H     -0.82505     0.68056    -0.52821
H      0.34202     2.76700    -0.10689
H     -1.22513     2.90019    -0.93565
C      2.20657    -1.31847    -0.11611
O      1.89163    -0.68454    -1.35024
H      2.06002    -2.39773    -0.18667
H      0.98055    -0.92797    -1.57454
H      3.25486    -1.12550     0.10769
H      1.59401    -0.93058     0.69863
C     -2.81790    -1.82229     1.17374
O     -1.44435    -2.11821     0.93524
H     -3.15204    -2.27325     2.10835
H     -0.94121    -1.61853     1.60735
H     -2.98019    -0.74437     1.22082
H     -3.40979    -2.24089     0.36096
C     -1.87640    -1.36466    -2.40739
O     -0.80168    -1.17359    -1.49998
H     -1.94415    -2.40934    -2.71327
H     -1.02984    -1.62293    -0.65673
H     -2.82207    -1.06392    -1.95523
H     -1.69551    -0.74655    -3.28231
C     -0.63792     0.44029     3.70505
O     -0.31876    -0.19671     2.47930
H     -1.71312     0.40720     3.89764
H     -0.49021     0.43573     1.75561
H     -0.11714    -0.07972     4.50674
H     -0.31431     1.48274     3.69938
