 30
-579.0439084416322
C      2.67403     0.49755    -0.65606
O      1.28462     0.73057    -0.78975
H      3.15254     1.41594    -0.31909
H      0.86944    -0.08556    -1.14322
H      2.87764    -0.29146     0.07290
H      3.11680     0.21010    -1.61084
C      0.20736    -1.73560     1.85217
O     -0.80384    -1.88744     0.86658
H     -0.21878    -1.79139     2.85413
H     -1.40796    -1.11628     0.96429
H      0.92669    -2.54648     1.73869
H      0.72824    -0.78149     1.74588
C     -2.57248     0.71112    -0.35487
O     -2.15783     0.40841     0.97544
H     -2.16842     1.67247    -0.67121
H     -1.47383     1.06354     1.21476
H     -2.22280    -0.05673    -1.04862
H     -3.66087     0.75021    -0.39636
C     -0.04782     3.40681     0.87374
O     -0.00582     2.02379     1.16532
H     -0.38000     3.58470    -0.15218
H      0.52252     1.58641     0.46503
H     -0.74568     3.88738     1.55721
H      0.93618     3.86565     1.00004
C      0.94404    -2.68660    -2.12871
O      0.24224    -1.58896    -1.57661
H      1.78256    -2.98424    -1.49292
H     -0.17556    -1.87721    -0.73584
H      0.28498    -3.54591    -2.26203
H      1.33049    -2.39103    -3.10163
