 48
-926.4804298508227
C     -1.32882     0.36384     2.57871
O     -0.84869     1.56101     1.97255
H     -1.44952     0.50927     3.65175
H      0.13340     1.48137     1.99308
H     -2.29864     0.11116     2.14975
H     -0.63818    -0.46022     2.40568
C     -2.75960     2.99683    -0.37756
O     -1.81684     1.94078    -0.40364
H     -3.10400     3.18060    -1.39391
H     -1.44490     1.83395     0.51530
H     -3.61413     2.73489     0.24754
H     -2.29886     3.90557     0.00879
C     -2.27130     0.08762    -3.16654
O     -2.41694    -0.26575    -1.79805
H     -2.84741     0.98505    -3.39780
H     -2.20883     0.52631    -1.26791
H     -1.22472     0.27061    -3.41434
H     -2.64450    -0.73088    -3.78039
C      1.95063    -1.35130    -2.02367
O      1.49995    -2.23582    -1.00543
H      1.26631    -0.51157    -2.15840
H      0.54021    -2.39957    -1.15911
H      2.93108    -0.96903    -1.73703
H      2.05547    -1.88461    -2.96879
C     -1.54463    -2.79484     0.17681
O     -1.13268    -2.50079    -1.15199
H     -0.71341    -2.63973     0.86958
H     -1.63273    -1.70663    -1.44169
H     -2.37338    -2.15383     0.48045
H     -1.86261    -3.83504     0.24281
C      2.94696    -2.40452     2.00132
O      1.91606    -1.58085     1.49056
H      3.91874    -2.10230     1.60348
H      1.79564    -1.82910     0.53914
H      2.96503    -2.32493     3.08742
H      2.77365    -3.44776     1.73635
C      2.37143     1.22152     3.31247
O      1.72840     0.98757     2.07625
H      3.44561     1.04677     3.23366
H      1.83784     0.03444     1.86489
H      2.21312     2.26100     3.59727
H      1.97153     0.57731     4.09949
C      1.49075     2.25742    -1.52307
O      0.30244     2.05588    -2.26255
H      1.67382     3.31992    -1.34443
H     -0.43649     2.10825    -1.64533
H      1.47787     1.73473    -0.56213
H      2.32597     1.86390    -2.10490
