 42
-810.665192736359
C     -2.21348    -0.77496     0.90113
O     -2.32674    -1.06403    -0.48571
H     -1.22852    -1.03309     1.29204
H     -1.98450    -0.28338    -0.96253
H     -2.38716     0.28163     1.09303
H     -2.95996    -1.35629     1.43888
C      2.85377    -0.07483     1.99548
O      1.46185    -0.30850     1.80236
H      3.27022     0.51229     1.17414
H      1.38525    -0.99883     1.10199
H      2.98860     0.47130     2.92746
H      3.39879    -1.01630     2.06722
C     -1.32031    -4.25218     0.02804
O     -0.93037    -3.30447    -0.95026
H     -0.52694    -4.99033     0.13374
H     -1.56145    -2.55566    -0.90481
H     -1.48723    -3.77804     0.99833
H     -2.23494    -4.76472    -0.27254
C      1.81990     2.76486    -1.89165
O      2.39180     2.45939    -0.63541
H      2.62928     2.91829    -2.60412
H      1.68463     2.41108     0.01590
H      1.18846     1.95232    -2.25969
H      1.21525     3.67575    -1.85392
C     -2.38392     2.21962    -1.16152
O     -1.30288     1.30691    -1.28764
H     -2.31420     2.99394    -1.92741
H     -0.67809     1.49165    -0.56539
H     -3.32691     1.68638    -1.29095
H     -2.38263     2.68955    -0.17642
C     -0.37595     2.50632     2.18450
O      0.08481     1.77530     1.06264
H     -0.86280     3.41255     1.83054
H      0.56019     0.97238     1.40021
H     -1.09084     1.91708     2.76184
H      0.45398     2.78587     2.83478
C      1.40019    -1.05157    -1.43796
O      1.22084    -1.89242    -0.29666
H      0.44111    -0.67244    -1.78924
H      0.49499    -2.51768    -0.52222
H      2.03510    -0.20634    -1.18066
H      1.87176    -1.60668    -2.24812
