 36
-694.8551698698245
C     -0.44617     3.47205    -0.58273
O     -0.92631     2.23595    -0.09234
H     -0.41892     4.22491     0.20753
H     -0.35470     1.95647     0.65308
H      0.55772     3.36776    -1.00135
H     -1.11749     3.81807    -1.36748
C      1.90633     0.34839    -1.21571
O      2.54486    -0.72998    -0.55869
H      1.89554     1.24062    -0.59012
H      1.99942    -1.00582     0.18392
H      2.47768     0.57331    -2.11524
H      0.88087     0.12520    -1.51024
C      1.95594     1.66756     2.18157
O      0.64539     1.25382     1.82776
H      2.02139     2.74828     2.05779
H      0.62652     0.27965     1.80868
H      2.17098     1.42680     3.22360
H      2.69836     1.19109     1.54136
C     -0.37700    -2.78477    -1.59845
O     -0.98926    -2.02848    -0.56180
H      0.60915    -2.38918    -1.84649
H     -1.39341    -1.23304    -0.97318
H     -0.27306    -3.81367    -1.26004
H     -0.99373    -2.77732    -2.49699
C     -3.31845     0.45309    -1.71876
O     -1.92169     0.26065    -1.57829
H     -3.52681     1.31283    -2.35907
H     -1.56845     1.02041    -1.06692
H     -3.74841    -0.43552    -2.17939
H     -3.79441     0.61455    -0.74916
C      0.75339    -2.59926     2.29524
O      0.54729    -1.45854     1.48159
H      1.29787    -3.36842     1.74360
H     -0.08213    -1.71018     0.76003
H      1.33639    -2.30295     3.16427
H     -0.20002    -3.01032     2.62821
