 48
-926.4784961761552
C     -3.25559    -0.48714     1.59772
O     -2.16747     0.39271     1.86993
H     -3.24158    -0.81940     0.55873
H     -2.01222     0.90892     1.06393
H     -3.17047    -1.36249     2.24071
H     -4.21010     0.00304     1.80401
C      0.25375     2.84295     1.74664
O      0.44987     2.67529     0.35131
H      0.08646     1.88358     2.23808
H     -0.38693     2.34136    -0.02895
H      1.14615     3.30152     2.17163
H     -0.59311     3.49850     1.95185
C     -0.66715    -0.68277    -2.97926
O     -1.63295    -0.56061    -1.93661
H      0.19047    -1.26344    -2.65072
H     -1.46549    -1.29697    -1.30365
H     -1.12680    -1.15931    -3.84554
H     -0.33001     0.31197    -3.27102
C     -0.14128    -3.46555    -0.71625
O     -1.04435    -2.50105    -0.19718
H     -0.13956    -4.36666    -0.10060
H     -0.69601    -2.19042     0.66621
H     -0.46487    -3.74655    -1.71933
H      0.86728    -3.05895    -0.77081
C      1.11510    -0.80346     1.90890
O     -0.14856    -1.42685     2.09766
H      1.79139    -1.49358     1.41056
H     -0.81218    -0.72561     2.23298
H      1.03918     0.09713     1.29879
H      1.54958    -0.53477     2.87523
C      3.51079    -1.66212    -1.59147
O      2.26404    -1.10033    -1.24090
H      3.82592    -1.35297    -2.59194
H      2.41053    -0.17725    -0.97565
H      4.29619    -1.39057    -0.88072
H      3.41231    -2.74814    -1.58465
C     -2.92849     2.37034    -0.97924
O     -1.78725     1.62571    -0.60068
H     -3.00743     3.24290    -0.33317
H     -1.73039     0.81743    -1.19185
H     -2.84299     2.70082    -2.01379
H     -3.83296     1.77067    -0.87415
C      3.58399     1.76551     0.71443
O      2.68171     1.43448    -0.32017
H      3.84382     2.82553     0.68678
H      1.85748     1.93787    -0.14661
H      3.16925     1.53913     1.69997
H      4.49460     1.18262     0.58227
