 48
-926.4805785384905
C     -1.11412     2.55180     1.66137
O      0.03210     2.22048     0.89046
H     -0.86175     2.50037     2.72109
H     -0.31180     1.90445     0.03106
H     -1.44782     3.56728     1.44139
H     -1.93288     1.86045     1.46001
C     -0.73669    -1.40655    -3.01739
O     -0.18572    -2.00848    -1.86430
H     -1.72362    -1.83118    -3.19876
H      0.71313    -1.63670    -1.72749
H     -0.83494    -0.33021    -2.89235
H     -0.12288    -1.60550    -3.89742
C     -0.78511    -1.46466     1.32002
O     -1.68962    -1.90893     0.31396
H     -1.26169    -1.59930     2.29041
H     -1.15879    -2.04623    -0.50457
H      0.14629    -2.02989     1.31115
H     -0.54230    -0.40791     1.19880
C     -1.72929     2.43770    -2.18411
O     -1.32231     1.43025    -1.28112
H     -2.53358     3.04805    -1.76546
H     -2.12152     0.92658    -0.99339
H     -0.87938     3.08307    -2.40511
H     -2.07874     1.99936    -3.12236
C     -4.44162    -0.45300    -1.14437
O     -3.36848     0.02711    -0.34941
H     -5.26129    -0.79987    -0.51468
H     -2.86822    -0.75679    -0.01523
H     -4.80648     0.36050    -1.77156
H     -4.11885    -1.27567    -1.78549
C      2.34548     0.44934    -1.59983
O      2.20641    -0.94881    -1.38887
H      2.47663     0.63016    -2.66534
H      2.51471    -1.12259    -0.47476
H      1.46631     0.99815    -1.25867
H      3.21760     0.83360    -1.07253
C      1.50367     0.79318     3.58227
O      1.99088     1.04957     2.27711
H      0.52414     0.31049     3.56161
H      1.29577     1.52356     1.76910
H      2.19882     0.12853     4.09357
H      1.42913     1.71750     4.15792
C      4.25093    -1.40383     1.62434
O      2.94353    -1.15065     1.14793
H      4.60491    -2.34113     1.19951
H      2.62702    -0.33040     1.58666
H      4.93793    -0.60282     1.34006
H      4.25532    -1.49403     2.71307
