 36
-694.8478220677853
C     -1.00598     1.75223    -1.59885
O     -0.58196     0.98336    -0.47610
H     -1.00102     1.14828    -2.50317
H     -1.14382     0.17304    -0.39887
H     -2.00572     2.15028    -1.42335
H     -0.31691     2.58580    -1.72535
C      2.90374     1.19713    -0.13313
O      2.07919     0.34206    -0.91052
H      3.93931     0.91519    -0.31034
H      1.15453     0.55234    -0.70161
H      2.77431     2.24394    -0.42111
H      2.69089     1.10129     0.93264
C      1.04724    -1.98681     1.63762
O     -0.13598    -1.28077     2.00554
H      0.75502    -2.86564     1.06408
H      0.11338    -0.35431     2.18352
H      1.69846    -1.36521     1.02523
H      1.58461    -2.32151     2.52509
C      0.27003    -1.58109    -3.18386
O      0.91479    -0.35696    -3.47024
H     -0.45890    -1.47612    -2.37735
H      1.51664    -0.15880    -2.74197
H     -0.25550    -1.90686    -4.08142
H      0.98410    -2.36113    -2.90487
C     -3.21822    -1.32666     0.51189
O     -1.88685    -1.24444     0.02698
H     -3.89832    -1.11117    -0.30892
H     -1.28923    -1.42556     0.79066
H     -3.42717    -2.32869     0.88801
H     -3.38878    -0.60795     1.31688
C     -0.52570     2.04363     3.01002
O      0.38079     1.41189     2.11286
H     -1.56200     1.78900     2.77174
H      0.07434     1.55907     1.20374
H     -0.29920     1.69493     4.01617
H     -0.40779     3.12784     2.98075
