 54
-1042.2859858399422
C      4.30551    -3.41387     1.02318
O      3.13669    -2.81120     0.48967
H      5.04455    -3.57146     0.23813
H      3.40335    -1.92641     0.14120
H      4.74855    -2.79152     1.80364
H      4.04233    -4.38138     1.44685
C      0.47843     1.82186    -3.44915
O      0.04344     0.81890    -2.55319
H      0.16035     1.61595    -4.47364
H     -0.92820     0.82830    -2.58471
H      0.10583     2.81060    -3.16666
H      1.56829     1.85460    -3.43330
C     -1.07642    -1.53861    -0.35564
O     -1.11823    -1.28898     1.04594
H     -1.72411    -0.83314    -0.87351
H     -0.33110    -1.72444     1.42884
H     -0.06390    -1.42530    -0.74369
H     -1.42665    -2.54911    -0.56881
C      3.26066     0.10400    -1.46249
O      3.63741    -0.28776    -0.15082
H      3.78695    -0.53528    -2.17001
H      3.06921     0.18888     0.48640
H      2.18733     0.01613    -1.63528
H      3.56602     1.13601    -1.64600
C      0.79443     1.43721     1.04109
O      1.80655     0.61613     1.61699
H      0.08967     1.79827     1.79053
H      1.40323    -0.18855     1.96739
H      1.28545     2.30099     0.59306
H      0.24363     0.90638     0.26523
C     -2.02527     3.53858    -0.32262
O     -2.97621     2.48915    -0.35677
H     -2.07297     4.07795     0.62453
H     -2.83142     1.92979     0.43989
H     -1.00973     3.16020    -0.46117
H     -2.24813     4.23920    -1.12739
C     -3.62931     0.43109     2.44422
O     -2.50685     0.87474     1.69662
H     -4.13796    -0.39576     1.94228
H     -1.96372     0.07940     1.49906
H     -3.31915     0.09953     3.43687
H     -4.32924     1.25881     2.55475
C      1.10714    -3.06931     3.21446
O      1.13202    -2.24488     2.06130
H      0.21112    -2.83977     3.78741
H      1.86861    -2.54198     1.46632
H      1.08821    -4.12422     2.93711
H      1.98159    -2.88188     3.83933
C     -3.42038     1.61929    -3.68425
O     -2.66516     1.09507    -2.61144
H     -4.47955     1.67621    -3.42737
H     -2.87865     1.62037    -1.81181
H     -3.07587     2.61895    -3.96435
H     -3.30656     0.95693    -4.54017
