 36
-694.8470086955284
C     -2.07233     2.54810    -2.45637
O     -1.24530     1.72505    -1.65048
H     -1.47525     2.92702    -3.28347
H     -1.62796     1.69874    -0.75653
H     -2.91828     1.98646    -2.86107
H     -2.45486     3.39653    -1.88490
C      4.32993    -1.23286     0.59760
O      3.05088    -1.01921     0.02732
H      4.76705    -2.11680     0.13314
H      2.56297    -0.39430     0.58493
H      4.99685    -0.38428     0.41974
H      4.27032    -1.40502     1.67601
C      1.02660     1.84926     1.36763
O      1.49270     0.57120     1.78001
H      1.79728     2.57999     1.60636
H      0.73772    -0.03612     1.74136
H      0.83577     1.87529     0.29268
H      0.11093     2.12567     1.89306
C      0.57656    -1.45462    -2.27249
O     -0.53204    -0.96427    -1.51754
H      0.63311    -2.53113    -2.12218
H     -0.72304    -0.04227    -1.77361
H      0.43536    -1.25736    -3.33547
H      1.50743    -1.00373    -1.93311
C     -3.54244     0.46235     0.49203
O     -2.30069     1.07603     0.82940
H     -4.25656     1.25211     0.26274
H     -1.72618     0.37899     1.18478
H     -3.44441    -0.18766    -0.38022
H     -3.92832    -0.12634     1.32526
C     -0.09250    -2.46249     1.48837
O     -0.54394    -1.17214     1.09507
H     -0.13199    -2.52194     2.57305
H     -0.52449    -1.15168     0.10455
H     -0.73634    -3.23562     1.06905
H      0.93153    -2.63042     1.15512
