 36
-694.8536448841224
C     -1.18269     3.58988    -0.17790
O     -0.40199     2.44471    -0.45896
H     -2.07914     3.33382     0.39353
H     -0.08772     2.08103     0.39649
H     -0.61163     4.32694     0.39012
H     -1.48605     4.04305    -1.11978
C      2.64626     0.16040    -0.95127
O      2.60432    -1.19253    -1.36998
H      2.41880     0.25780     0.11158
H      1.67890    -1.44269    -1.46662
H      3.65627     0.53440    -1.11719
H      1.95159     0.79516    -1.50630
C     -0.47313     1.47488     3.03185
O      0.21455     1.21622     1.82408
H     -0.02273     0.93680     3.86716
H      0.26291     0.24093     1.70340
H     -0.42718     2.54185     3.24428
H     -1.52170     1.17574     2.95295
C     -0.65098    -2.88472    -2.09198
O     -0.14989    -1.84658    -1.26783
H     -1.67979    -3.12814    -1.82118
H     -0.66550    -1.02341    -1.45868
H     -0.62024    -2.59162    -3.14195
H     -0.02962    -3.76481    -1.94751
C     -2.63894     0.08857    -0.50080
O     -1.62547     0.30151    -1.47691
H     -2.82582    -0.98141    -0.40963
H     -1.18145     1.14588    -1.24288
H     -2.33532     0.47226     0.47249
H     -3.56542     0.57667    -0.80527
C      1.65553    -1.92859     1.88704
O      0.41058    -1.39887     1.43119
H      2.31293    -2.15823     1.05045
H      0.24101    -1.71322     0.52561
H      2.14251    -1.18200     2.51626
H      1.48691    -2.82700     2.48265
