 48
-926.4732187929288
C      0.97480     1.27051     1.10676
O      0.95384     1.12909    -0.30712
H      1.17363     2.31698     1.33775
H      0.66166     0.21696    -0.51369
H      0.01808     0.99248     1.54717
H      1.76694     0.66994     1.54587
C     -0.99504     3.76745    -0.43061
O     -0.55341     2.94434    -1.49209
H     -1.79757     4.40823    -0.79388
H      0.11710     2.33192    -1.11010
H     -1.37007     3.18117     0.41021
H     -0.18915     4.41115    -0.07281
C     -3.63998     1.82322    -2.54246
O     -2.44353     1.18542    -2.13687
H     -3.75364     2.79841    -2.06350
H     -1.74542     1.87400    -2.06561
H     -3.65866     1.96410    -3.62429
H     -4.48635     1.19729    -2.26131
C      3.66460    -0.56789    -1.27527
O      2.92372    -1.67914    -0.77968
H      3.39692     0.34382    -0.74416
H      3.02643    -1.70506     0.19390
H      4.73563    -0.74297    -1.17573
H      3.43218    -0.44410    -2.33146
C     -1.08797    -1.71238     2.76438
O      0.05224    -1.66660     1.91849
H     -1.58603    -2.68045     2.68497
H     -0.22040    -1.60465     0.99014
H     -0.74303    -1.57742     3.78779
H     -1.78472    -0.91762     2.50183
C      3.00746    -3.03531     2.48384
O      2.70085    -1.75691     1.95105
H      4.05923    -3.05746     2.76289
H      1.73152    -1.64958     2.02525
H      2.40414    -3.23940     3.37024
H      2.81487    -3.82277     1.75011
C     -3.24795     1.05207     1.09351
O     -2.27188     0.26753     0.43668
H     -4.03030     0.41874     1.51971
H     -2.28497     0.49406    -0.50935
H     -2.78611     1.60614     1.91716
H     -3.71314     1.77214     0.41723
C     -0.37065    -1.55902    -2.10729
O      0.32699    -1.38469    -0.88007
H     -0.37609    -2.60993    -2.39510
H      1.27591    -1.63607    -0.99437
H     -1.39430    -1.22469    -1.97018
H      0.09367    -0.97413    -2.90321
