 54
-1042.293463073016
C      0.32931    -2.55117     1.37481
O     -0.40509    -2.19448     0.21280
H      0.54073    -1.67445     1.98706
H     -1.23128    -1.76520     0.52260
H     -0.21679    -3.28812     1.96723
H      1.27436    -3.00036     1.06727
C      1.10505     2.68907    -3.83297
O      1.53984     2.46467    -2.49977
H      1.49990     3.63568    -4.20373
H      2.14380     1.69367    -2.51769
H      1.43767     1.88207    -4.48704
H      0.01383     2.73324    -3.86664
C      0.76033    -2.40312    -2.86701
O      1.33182    -1.75228    -1.74149
H     -0.32028    -2.50037    -2.75024
H      0.68916    -1.84788    -1.00145
H      0.95991    -1.81225    -3.76397
H      1.19282    -3.39628    -2.99775
C      4.27531     0.02061    -2.10256
O      2.94455     0.20259    -2.55099
H      4.30841    -0.16979    -1.02743
H      2.39137    -0.52954    -2.20674
H      4.75129    -0.81565    -2.61879
H      4.83938     0.92823    -2.31219
C     -3.77175    -1.96520     1.20285
O     -2.63471    -1.11806     1.21937
H     -4.68284    -1.39067     1.37671
H     -2.54492    -0.74895     2.13099
H     -3.84239    -2.44227     0.22589
H     -3.69488    -2.74132     1.96856
C     -1.14146    -0.67010     4.31167
O     -2.29891    -0.13636     3.68025
H     -1.11820    -1.75056     4.16331
H     -2.09403     0.80657     3.49753
H     -0.23613    -0.23341     3.88828
H     -1.16406    -0.47213     5.38216
C     -1.14002     0.68458    -1.72340
O     -0.44545     1.64336    -0.94249
H     -0.47423     0.14393    -2.39496
H      0.24864     2.05457    -1.50633
H     -1.63660    -0.03164    -1.07034
H     -1.90943     1.17425    -2.32224
C      2.04846     0.62157     0.96168
O      0.69881     0.86260     1.32476
H      2.36485     1.25420     0.13221
H      0.22327     1.06030     0.48996
H      2.69122     0.82242     1.81770
H      2.19040    -0.41874     0.66286
C     -2.18992     2.57333     1.65277
O     -1.35816     2.18856     2.74276
H     -1.71838     3.35845     1.06247
H     -0.52888     1.84095     2.37534
H     -2.40764     1.73236     0.99165
H     -3.12033     2.95123     2.07000
