 60
-1158.092089320133
C      2.58153    -3.43064    -2.81554
O      1.54131    -2.61284    -2.30998
H      2.16690    -4.38633    -3.13801
H      1.92275    -2.06830    -1.58622
H      3.06305    -2.95573    -3.67213
H      3.33556    -3.61969    -2.04969
C     -0.74995     5.08238    -0.37176
O     -0.29941     3.74974    -0.52250
H     -1.15058     5.47033    -1.31094
H     -1.07496     3.19293    -0.70422
H     -1.52426     5.15472     0.39712
H      0.09446     5.70175    -0.07243
C      2.61799     3.49630     1.15095
O      1.41001     2.79571     1.37385
H      2.98656     3.36011     0.13010
H      0.78739     3.09151     0.68874
H      2.49926     4.56777     1.33102
H      3.37224     3.11243     1.83812
C     -1.68623     2.00069     2.59670
O     -2.39073     1.14123     1.69421
H     -0.61048     1.84992     2.53664
H     -1.93009     0.28475     1.66787
H     -1.89659     3.03615     2.32941
H     -2.02699     1.83458     3.61906
C      0.55395    -4.65304    -0.02798
O     -0.31114    -4.10257    -1.00196
H      1.43846    -5.10896    -0.48270
H      0.24490    -3.54487    -1.57229
H      0.89543    -3.90101     0.68708
H      0.01852    -5.43124     0.51959
C     -2.03401    -2.22761     1.07811
O     -1.01352    -1.23854     1.00635
H     -2.27790    -2.39336     2.12663
H     -0.89400    -0.99280     0.05980
H     -2.93818    -1.89499     0.56324
H     -1.69553    -3.15562     0.62614
C      2.50312     0.16605    -0.45903
O      2.62333    -1.23908    -0.28709
H      3.07557     0.44494    -1.34246
H      2.30818    -1.46478     0.61146
H      1.46462     0.46784    -0.60381
H      2.90112     0.71868     0.39030
C     -1.11865    -0.93927    -2.69319
O     -0.99351    -0.28657    -1.42703
H     -1.20160    -2.01006    -2.52649
H     -1.43515     0.57441    -1.45247
H     -2.00570    -0.58781    -3.22362
H     -0.23365    -0.75385    -3.29888
C      1.70174    -0.64469     3.04334
O      1.42714    -1.63421     2.06722
H      1.07713    -0.78111     3.92915
H      0.49751    -1.53404     1.78519
H      2.74241    -0.74329     3.34695
H      1.54511     0.36349     2.65499
C     -3.81045     2.35197    -1.21385
O     -2.49278     2.14028    -0.72804
H     -4.52235     1.74634    -0.65433
H     -2.55558     1.80083     0.19973
H     -4.08148     3.40452    -1.12131
H     -3.84787     2.06472    -2.26308
