 24
-463.2206435160822
C      1.83095     0.78038    -1.88296
O      1.87761     0.51974    -0.48999
H      2.74259     0.39644    -2.33811
H      1.21416     1.10823    -0.07955
H      0.97004     0.28733    -2.34103
H      1.76673     1.85238    -2.08192
C     -0.48781     1.36392     1.85659
O     -0.29769     1.75032     0.50199
H      0.35958     1.73164     2.43227
H     -0.99639     1.32433    -0.02450
H     -1.39818     1.81102     2.26035
H     -0.54402     0.27938     1.95665
C     -2.62200    -0.85384    -0.74177
O     -2.15363     0.46556    -1.04416
H     -3.48754    -0.81010    -0.07805
H     -2.79917     0.91922    -1.58525
H     -2.88356    -1.39250    -1.65428
H     -1.81089    -1.37526    -0.24378
C      1.39943    -2.62531     1.26897
O      0.52628    -1.81357     0.50215
H      1.79805    -2.08317     2.13281
H      1.03536    -1.07691     0.13020
H      0.83350    -3.48329     1.63231
H      2.24133    -2.99213     0.67477
