 60
-1158.0936792418483
C      3.11702     1.89194    -1.54289
O      2.64337     0.63307    -1.10962
H      3.60637     2.38604    -0.70402
H      2.10120     0.25682    -1.83401
H      3.83613     1.79218    -2.36035
H      2.29748     2.53234    -1.88355
C     -0.08840     4.54930     1.26826
O     -0.49202     3.35382     1.91722
H     -0.93182     5.21888     1.07727
H     -1.37876     3.10745     1.62022
H      0.62743     5.06476     1.90805
H      0.40781     4.33397     0.31582
C      1.95771    -1.12995    -4.09342
O      1.19456    -0.52039    -3.06000
H      3.02237    -1.10814    -3.85536
H      0.56137    -1.19700    -2.72848
H      1.65896    -2.17014    -4.22422
H      1.79554    -0.60036    -5.03251
C     -1.82027    -2.13363    -2.43673
O     -0.45399    -2.37710    -2.14032
H     -1.89557    -1.83740    -3.48188
H     -0.37903    -2.62052    -1.19413
H     -2.41942    -3.03450    -2.29816
H     -2.22260    -1.33343    -1.81486
C     -1.35826    -3.66534     1.03387
O     -0.31600    -2.89105     0.46270
H     -2.31703    -3.14395     0.97315
H     -0.15589    -2.15134     1.08392
H     -1.43363    -4.60770     0.49274
H     -1.14990    -3.88874     2.08079
C      1.14014    -0.04417     2.11426
O     -0.09367    -0.75397     1.97546
H      1.65278    -0.36484     3.01989
H     -0.75564    -0.32041     2.56009
H      1.77762    -0.25670     1.25863
H      0.95914     1.02815     2.16838
C     -4.30699     2.09491     0.81433
O     -2.93302     2.05471     1.16305
H     -4.82873     2.71080     1.54246
H     -2.49396     1.42872     0.54255
H     -4.43613     2.53042    -0.17759
H     -4.73391     1.09131     0.81913
C      3.23987    -2.80504    -0.98802
O      4.21622    -1.80973    -1.22290
H      3.74629    -3.76660    -0.89748
H      3.81041    -0.95266    -1.05278
H      2.67773    -2.62728    -0.06736
H      2.52371    -2.87055    -1.80794
C     -1.30537     1.32052     4.51473
O     -1.86126     0.57697     3.42980
H     -0.74319     0.62924     5.13930
H     -2.34843     1.18127     2.85073
H     -0.64102     2.09965     4.14516
H     -2.09545     1.76932     5.11757
C     -0.50243     1.51331    -0.87136
O     -1.41195     0.54113    -0.33778
H      0.39918     1.60682    -0.27288
H     -0.91891    -0.11686     0.17543
H     -0.21913     1.25080    -1.88659
H     -1.00455     2.47775    -0.88769
