 60
-1158.092706230632
C      0.46316     2.66237    -3.34756
O      0.30430     2.34271    -1.96598
H      0.58792     1.76230    -3.94891
H     -0.50012     1.79866    -1.87544
H     -0.40609     3.21046    -3.71232
H      1.34250     3.29438    -3.45618
C      3.41041     2.14048    -0.65435
O      2.27527     1.29033    -0.62507
H      4.06465     1.87660     0.17433
H      1.55627     1.72745    -1.15260
H      3.95205     2.01362    -1.59275
H      3.11290     3.18450    -0.55254
C      1.71538    -0.44518     2.50513
O      1.07742     0.54844     1.69550
H      2.07423    -1.27090     1.89570
H      1.64200     0.80164     0.93883
H      2.54676    -0.00329     3.05340
H      0.99158    -0.82842     3.22134
C      0.81486    -1.56293    -1.89904
O      1.79922    -1.47013    -0.87387
H     -0.16042    -1.77264    -1.46557
H      2.17304    -0.57795    -0.86972
H      0.73964    -0.64857    -2.48326
H      1.07189    -2.37681    -2.57744
C      1.88322    -4.70613     0.09350
O      1.63947    -3.55143     0.86656
H      2.93528    -4.78108    -0.19510
H      1.73794    -2.79098     0.27197
H      1.62563    -5.58278     0.68649
H      1.27833    -4.72318    -0.81833
C     -1.58400    -1.90324     1.27551
O     -1.25007    -0.67050     0.62197
H     -2.57397    -2.20182     0.93863
H     -0.46445    -0.29317     1.05683
H     -0.86564    -2.68080     1.02085
H     -1.60790    -1.75799     2.35447
C     -1.38561     0.20442     5.80582
O     -1.54969    -0.13164     4.44357
H     -0.36823     0.54983     6.01786
H     -1.41748     0.66655     3.91247
H     -2.08552     0.98441     6.11951
H     -1.57446    -0.68817     6.40134
C     -3.07960     1.14230    -1.40572
O     -1.77903     0.59156    -1.58036
H     -3.01160     2.20454    -1.15851
H     -1.56972     0.05510    -0.77410
H     -3.64697     1.02679    -2.32848
H     -3.59616     0.62485    -0.60017
C     -1.53623     2.49299     1.65590
O     -0.83004     2.06361     2.80808
H     -1.97054     3.47325     1.85215
H     -0.02526     1.62613     2.48764
H     -0.88159     2.56680     0.78809
H     -2.34182     1.79777     1.42330
C     -1.77379    -1.26978    -4.60150
O     -1.31708     0.02656    -4.26467
H     -1.40724    -2.01763    -3.89161
H     -1.50671     0.16054    -3.32599
H     -2.86643    -1.32438    -4.62502
H     -1.39346    -1.51823    -5.59083
