 54
-1042.2785852291588
C      3.18461     1.47286     0.51662
O      1.99674     0.91035    -0.02709
H      3.49694     0.87308     1.37220
H      1.56680     1.60507    -0.57877
H      3.98653     1.45571    -0.22314
H      3.02535     2.49654     0.85274
C     -2.60275     1.69962    -0.31411
O     -1.56885     2.40135     0.35736
H     -3.50957     1.68352     0.29234
H     -1.15335     1.81300     1.01163
H     -2.83318     2.23524    -1.23507
H     -2.30721     0.67994    -0.55821
C     -0.26385    -0.04454    -2.61682
O     -0.57527    -0.74202    -1.41608
H      0.59497     0.60700    -2.47131
H      0.23253    -1.21477    -1.11858
H     -0.05033    -0.74299    -3.42679
H     -1.11559     0.57168    -2.90004
C     -0.59545    -5.36644     0.19087
O     -0.23761    -4.72587    -1.01763
H     -1.50468    -5.95640     0.07270
H     -1.01360    -4.20567    -1.31290
H      0.21245    -6.03202     0.48348
H     -0.75842    -4.63942     0.99137
C      2.04745    -2.53790     0.43638
O      1.28862    -2.53327    -0.75880
H      1.45535    -2.87549     1.29075
H      0.89118    -3.42108    -0.88705
H      2.91226    -3.19610     0.34575
H      2.40342    -1.52962     0.62940
C     -3.09085    -2.73182    -0.52732
O     -2.13678    -2.88437    -1.56024
H     -2.61628    -2.73061     0.45856
H     -1.62375    -2.04800    -1.59856
H     -3.64730    -1.79929    -0.63570
H     -3.79413    -3.56084    -0.57517
C      0.07354     4.38149     2.59766
O      1.12689     3.45132     2.40924
H      0.50168     5.38338     2.55048
H      0.75788     2.56133     2.36241
H     -0.68812     4.29461     1.82033
H     -0.40443     4.26111     3.57398
C     -0.47527    -0.46212     2.12526
O      0.11561     0.79376     1.84111
H     -0.63808    -1.04163     1.21711
H      0.84328     0.66781     1.18829
H      0.14971    -1.02875     2.81607
H     -1.43363    -0.28511     2.61032
C      1.10590     4.18433    -1.01231
O      0.59901     2.86839    -1.16060
H      1.29623     4.41782     0.03381
H     -0.24880     2.80127    -0.66992
H      2.03933     4.25782    -1.56919
H      0.41158     4.91888    -1.42414
