 54
-1042.2887380317686
C      1.81315    -0.50528     2.18571
O      1.31609     0.82922     2.21164
H      1.32869    -1.06740     2.98166
H      1.69585     1.30124     1.43713
H      1.60017    -0.99367     1.23185
H      2.88947    -0.51513     2.36098
C     -0.96883     2.02683    -1.87874
O     -1.45951     0.70053    -2.06192
H     -0.30038     2.08907    -1.01715
H     -1.90958     0.44002    -1.22217
H     -0.41912     2.32148    -2.77160
H     -1.79757     2.72024    -1.73955
C     -4.32063    -0.39642     3.24482
O     -3.06922    -0.89446     3.66582
H     -5.08667    -1.10233     3.56091
H     -2.39739    -0.25904     3.39607
H     -4.54302     0.57477     3.69759
H     -4.37531    -0.29182     2.15895
C      3.24111     3.06669     0.02444
O      2.26006     2.04741     0.05271
H      3.15528     3.66069    -0.88732
H      2.40532     1.48033    -0.73384
H      3.09221     3.72344     0.88070
H      4.24863     2.64713     0.07321
C      0.46519    -3.88593    -1.13005
O      1.20063    -2.70575    -0.89005
H      0.76525    -4.37303    -2.06196
H      0.94816    -2.07250    -1.57409
H      0.64244    -4.57973    -0.31021
H     -0.60921    -3.68898    -1.18456
C     -2.09270    -1.48610     0.39675
O     -2.41647    -0.10086     0.29214
H     -1.01306    -1.65000     0.35748
H     -2.05506     0.33916     1.08563
H     -2.48109    -1.91001     1.31926
H     -2.55659    -2.00415    -0.44149
C      3.67488    -0.52414    -1.76553
O      2.67749     0.45213    -2.04166
H      3.33929    -1.22594    -1.00136
H      1.90225    -0.01531    -2.40672
H      3.92709    -1.08110    -2.66862
H      4.56938    -0.01397    -1.41110
C      0.21181    -1.37970    -4.13777
O      0.45263    -0.86506    -2.84103
H      0.02824    -0.57160    -4.84548
H     -0.33698    -0.31538    -2.57294
H      1.08964    -1.93934    -4.45531
H     -0.65139    -2.04514    -4.12487
C     -1.53200     2.41079     2.56558
O     -1.26661     1.01756     2.49624
H     -1.41682     2.87448     1.58394
H     -0.28020     0.91260     2.43366
H     -2.55347     2.55607     2.91286
H     -0.84926     2.89454     3.26160
