 54
-1042.2831047683208
C      1.70504    -2.57794     1.15200
O      1.71916    -1.16227     1.02979
H      2.71556    -2.94295     1.33333
H      1.40101    -0.92757     0.13595
H      1.07187    -2.88306     1.98819
H      1.32453    -3.04895     0.24208
C     -1.04901     2.33805    -0.89651
O     -1.35532     0.97249    -1.21123
H     -0.67155     2.41713     0.11879
H     -1.68968     0.55722    -0.37499
H     -0.28553     2.69586    -1.58024
H     -1.94459     2.94738    -1.00249
C     -1.72191    -2.55659     5.05516
O     -1.02980    -2.60729     3.81958
H     -2.52295    -1.81059     5.03660
H     -0.65828    -1.73551     3.63690
H     -2.16676    -3.53571     5.22674
H     -1.05090    -2.33162     5.88944
C      3.18613     2.02682     1.06715
O      1.93609     2.34304     0.47659
H      3.99362     2.06295     0.33295
H      2.01038     2.20794    -0.47871
H      3.40710     2.75183     1.85276
H      3.16770     1.03011     1.51213
C      0.37362    -1.72987    -2.32789
O      0.69667    -0.68198    -1.42211
H      0.12443    -1.32922    -3.30842
H     -0.06252    -0.05415    -1.39531
H      1.23932    -2.38409    -2.41686
H     -0.47082    -2.31376    -1.95754
C     -2.05567    -1.63869     0.78182
O     -1.87477    -0.24842     1.04555
H     -2.65427    -1.74449    -0.12363
H     -1.22395    -0.17376     1.77099
H     -1.09894    -2.13278     0.62679
H     -2.57695    -2.12462     1.60226
C      1.69909     2.00155    -3.52084
O      2.13720     1.65567    -2.21004
H      2.46088     1.74226    -4.25747
H      1.96520     0.71468    -2.07839
H      0.76379     1.49838    -3.77479
H      1.54514     3.07952    -3.55051
C     -2.88215     0.57474    -4.70838
O     -1.66460     0.32097    -4.02574
H     -2.74406     0.28338    -5.74878
H     -1.75498     0.58556    -3.10221
H     -3.70866    -0.00867    -4.29308
H     -3.14903     1.63511    -4.67876
C      0.34316     1.20719     3.25803
O      0.10716    -0.14181     2.86294
H      0.74340     1.78523     2.42692
H      0.83576    -0.43638     2.26795
H     -0.60296     1.63694     3.58145
H      1.04033     1.23473     4.09574
