 36
-694.8544726253557
C      2.29163     2.32124    -1.20202
O      1.26040     2.09165    -0.25522
H      2.11441     1.75936    -2.12050
H      0.43180     1.90631    -0.74558
H      2.36274     3.38294    -1.44386
H      3.24094     1.99736    -0.77361
C     -2.11285     2.30045    -1.09594
O     -1.05764     1.42176    -1.46055
H     -2.77463     2.47508    -1.94687
H     -1.32536     0.52931    -1.17289
H     -2.69419     1.88386    -0.27216
H     -1.69344     3.25859    -0.78289
C      0.21870    -2.78189     1.64359
O     -0.27802    -1.44729     1.65353
H      0.81894    -2.97208     0.75523
H      0.49758    -0.84184     1.69069
H      0.82146    -2.97091     2.53298
H     -0.62919    -3.46528     1.65104
C      1.11177    -1.30426    -1.90283
O      0.18268    -2.36034    -1.75010
H      1.99257    -1.70377    -2.40676
H     -0.64625    -1.98083    -1.44134
H      0.70950    -0.49474    -2.51716
H      1.42885    -0.88572    -0.94670
C     -3.26627    -1.04074     0.05607
O     -1.90658    -0.87422    -0.30602
H     -3.48850    -0.48201     0.96675
H     -1.34986    -1.08761     0.48828
H     -3.89075    -0.66464    -0.75129
H     -3.49612    -2.09445     0.22089
C      2.01846     0.93080     2.85596
O      1.75710     0.27736     1.62443
H      3.07141     1.21065     2.92449
H      1.62884     0.97346     0.94237
H      1.40498     1.82774     2.96222
H      1.78580     0.24924     3.67426
