 60
-1158.0980636905833
C      2.66906     1.51880     2.92075
O      1.74833     1.10718     1.92228
H      2.21289     2.23067     3.61012
H      0.88243     0.95956     2.37812
H      3.02657     0.65905     3.48781
H      3.52532     1.99394     2.44037
C      3.46497    -1.54310    -0.45320
O      2.26515    -2.21617    -0.80510
H      3.25678    -0.67793     0.17945
H      1.89622    -1.74010    -1.58579
H      4.10839    -2.23614     0.08746
H      3.99326    -1.20305    -1.34332
C      1.77665     3.96173     0.21776
O      1.09224     2.73837     0.01016
H      2.85403     3.80214     0.27045
H      1.39957     2.10168     0.70718
H      1.56195     4.63037    -0.61380
H      1.44531     4.43409     1.14443
C     -4.12958    -0.59173    -0.96717
O     -2.72089    -0.49159    -0.95377
H     -4.47975    -1.20599    -1.80208
H     -2.37070    -1.35700    -0.66746
H     -4.51887    -1.02002    -0.03857
H     -4.55385     0.40774    -1.07989
C     -1.26230    -3.69179    -1.20399
O     -1.69901    -2.83642    -0.16154
H     -1.36785    -4.73846    -0.91165
H     -0.92821    -2.71853     0.43631
H     -1.87945    -3.52449    -2.08881
H     -0.22058    -3.50320    -1.46402
C      0.98827    -3.77961     1.81713
O      0.57051    -2.56976     1.20826
H      1.55997    -3.57171     2.72279
H      1.22374    -2.37753     0.50016
H      0.11274    -4.36942     2.08929
H      1.60647    -4.36131     1.13299
C     -1.42029    -0.10700     2.64877
O     -0.67157     1.05709     2.99824
H     -1.89557     0.01335     1.67778
H     -1.10209     1.81256     2.55551
H     -0.75664    -0.96731     2.60812
H     -2.18601    -0.29396     3.40226
C      0.09860    -1.32882    -3.43173
O      1.27945    -0.84090    -2.81265
H     -0.11497    -0.78248    -4.35102
H      1.14718     0.12253    -2.66837
H      0.24905    -2.37520    -3.69906
H     -0.76397    -1.25136    -2.76994
C     -0.58218     2.07384    -2.72902
O      0.75873     1.73366    -2.40551
H     -1.29528     1.46933    -2.16528
H      0.93733     2.11189    -1.52237
H     -0.78206     3.12873    -2.53449
H     -0.73759     1.89988    -3.79269
C     -2.71033     2.55615     0.56779
O     -1.55416     2.96804     1.29141
H     -2.50472     1.71452    -0.08915
H     -0.79956     2.98916     0.68835
H     -3.46945     2.25270     1.28872
H     -3.11532     3.38465    -0.01755
