 36
-694.8541879285286
C      0.50838     2.43096     1.90540
O      0.84583     1.06459     1.73696
H      1.40058     3.06000     1.88151
H      1.31871     0.96646     0.87930
H     -0.17721     2.75741     1.12489
H      0.03547     2.55608     2.87973
C      1.98013     1.87746    -1.56382
O      2.00679     0.80215    -0.63153
H      1.97381     1.49656    -2.58504
H      1.83016    -0.02622    -1.12153
H      1.09088     2.48932    -1.41848
H      2.86802     2.49284    -1.42290
C      1.83895    -2.63996    -1.36006
O      1.23896    -1.45415    -1.85515
H      2.83412    -2.73062    -1.78906
H      0.31516    -1.44365    -1.54512
H      1.92421    -2.61258    -0.26981
H      1.25485    -3.51859    -1.64110
C     -0.40110    -1.89474     2.66886
O     -0.96153    -0.82904     1.92053
H     -1.09942    -2.73090     2.66793
H     -0.32269    -0.07344     1.96211
H      0.54600    -2.22455     2.23359
H     -0.22231    -1.58990     3.69989
C     -2.43107    -1.77715    -1.00231
O     -1.17202    -1.21095    -0.68169
H     -3.23626    -1.15623    -0.61098
H     -1.11592    -1.10014     0.29956
H     -2.51794    -1.82747    -2.08514
H     -2.52623    -2.78024    -0.58296
C     -2.50366     1.85288    -0.20531
O     -1.31063     1.79870    -0.96728
H     -2.68240     2.89142     0.07503
H     -1.06984     0.87433    -1.09188
H     -3.36599     1.51127    -0.78342
H     -2.43753     1.25690     0.70938
