 60
-1158.0965473042174
C      2.94398     4.08015     0.67258
O      2.00512     3.02459     0.60256
H      2.43337     4.97060     1.03711
H      2.42461     2.29073     0.11135
H      3.75854     3.83989     1.36015
H      3.37011     4.30187    -0.30901
C     -2.81695    -1.54208     2.36981
O     -2.34247    -1.64621     1.03750
H     -3.29727    -2.48316     2.63609
H     -1.87350    -0.81444     0.83985
H     -2.00022    -1.35905     3.06852
H     -3.55037    -0.73936     2.47298
C      3.50970    -0.17861    -0.43847
O      2.91005     1.00462    -0.95546
H      3.65235    -0.91724    -1.22832
H      2.07077     0.75233    -1.37172
H      4.48262     0.08522    -0.02841
H      2.90200    -0.62138     0.35103
C     -0.31313     0.11994    -2.91125
O      0.31174     0.04270    -1.63207
H     -0.55312     1.16005    -3.12115
H      0.42863    -0.91348    -1.37697
H      0.36499    -0.23761    -3.68634
H     -1.22553    -0.47150    -2.92930
C     -0.18847    -3.39442    -1.00589
O      0.70549    -2.33496    -0.68768
H     -0.92728    -3.54796    -0.22134
H      0.82465    -2.27770     0.28737
H     -0.71404    -3.15619    -1.92762
H      0.36833    -4.31962    -1.15780
C      0.38127    -3.08293     2.69197
O      1.00629    -2.04790     1.95593
H      0.35132    -2.84535     3.75701
H      0.70008    -1.19143     2.32401
H     -0.64072    -3.24626     2.34568
H      0.94832    -4.00522     2.56644
C     -2.33472     1.46034    -0.20713
O     -1.23570     0.74163     0.35183
H     -2.64562     1.01234    -1.14833
H     -0.58417     0.58978    -0.37055
H     -3.16891     1.42718     0.49394
H     -2.04728     2.49472    -0.38017
C     -3.77421    -2.97094    -2.10283
O     -3.05750    -1.79753    -1.77058
H     -3.88512    -3.01008    -3.18670
H     -2.88437    -1.79819    -0.81744
H     -3.24259    -3.87341    -1.78199
H     -4.77067    -2.98433    -1.65146
C      0.93425     1.27821     3.31088
O      0.05657     0.28904     2.76877
H      0.96969     2.16257     2.67822
H     -0.41885     0.66178     2.00691
H      0.59402     1.55608     4.30839
H      1.94176     0.86498     3.38749
C      0.83183     3.73928    -2.54010
O     -0.00609     3.61432    -1.41113
H      1.43760     4.64783    -2.49678
H      0.55726     3.47417    -0.63776
H      1.50359     2.88441    -2.65309
H      0.20319     3.80042    -3.42961
