 42
-810.6618644992552
C     -2.24268    -2.36833     0.39262
O     -0.97798    -2.46125     1.05007
H     -2.21424    -2.98738    -0.50303
H     -0.86236    -1.64352     1.55910
H     -3.03753    -2.73066     1.04426
H     -2.45081    -1.33907     0.10294
C     -1.42772     1.19318     2.59851
O     -0.77697     0.26342     1.74432
H     -1.26045     0.88699     3.62769
H     -0.98026     0.53715     0.81766
H     -1.03253     2.19810     2.45061
H     -2.50200     1.20327     2.40573
C     -0.30311    -1.22736    -3.70470
O      0.07277    -0.77735    -2.41651
H     -0.52398    -0.36251    -4.32727
H      0.40651    -1.55144    -1.91210
H      0.50448    -1.79412    -4.17103
H     -1.19142    -1.86320    -3.65592
C      0.70903    -4.18290    -1.34352
O      0.79932    -2.84182    -0.89978
H      1.47873    -4.35706    -2.09282
H      0.22692    -2.75191    -0.10575
H      0.86507    -4.88139    -0.52046
H     -0.26753    -4.38643    -1.78999
C     -1.23048     2.20505    -1.23711
O     -1.27434     0.85886    -0.78207
H     -1.93254     2.79394    -0.65015
H     -0.79772     0.29690    -1.42995
H     -0.23439     2.62836    -1.11593
H     -1.52128     2.26582    -2.28638
C      1.63573     4.55880     1.74801
O      0.90516     3.61584     0.98975
H      1.15877     5.53180     1.63124
H      1.31173     2.74313     1.11616
H      1.64427     4.30470     2.81250
H      2.67175     4.63731     1.40540
C      2.37178     0.42143     0.27861
O      1.92883     1.07651     1.46277
H      3.37913     0.76905     0.05889
H      1.12504     0.62969     1.76344
H      2.39654    -0.66142     0.41038
H      1.72807     0.64900    -0.57219
