 36
-694.8547627978285
C      0.12678     3.06243    -0.73826
O     -1.11524     2.64480    -0.20142
H      0.56801     3.78648    -0.05240
H     -1.36510     1.82236    -0.63888
H      0.82883     2.23024    -0.84653
H     -0.00108     3.54318    -1.71114
C      1.16624    -1.48898    -3.07214
O      0.82588    -0.61815    -2.00935
H      0.65755    -1.15496    -3.97456
H      1.42971    -0.81022    -1.25241
H      2.24068    -1.47200    -3.25691
H      0.86515    -2.51696    -2.85660
C      2.40765    -2.57313     0.39096
O      2.24296    -1.18363     0.15391
H      3.14228    -2.96562    -0.31026
H      1.80962    -0.81976     0.96199
H      2.76379    -2.75192     1.40479
H      1.46219    -3.10494     0.25739
C      1.09856     1.09656     2.47333
O      0.90126    -0.29520     2.26924
H      0.77838     1.38438     3.47545
H     -0.05602    -0.42760     2.10987
H      2.16266     1.31248     2.38441
H      0.54901     1.68739     1.74035
C     -2.52674    -0.53828    -2.06394
O     -1.55434    -0.03006    -1.17242
H     -2.38606    -1.60863    -2.22225
H     -0.65972    -0.26289    -1.53194
H     -3.51255    -0.37140    -1.63410
H     -2.46780    -0.02744    -3.02644
C     -2.54090     0.57178     2.11665
O     -1.68453    -0.40053     1.53712
H     -3.56176     0.46487     1.74395
H     -1.70071    -0.27582     0.57215
H     -2.55068     0.41714     3.19430
H     -2.19456     1.58214     1.90303
