 36
-694.8476738946079
C     -0.61317     2.45655    -3.84451
O      0.01887     1.85104    -2.73045
H     -0.32931     3.50819    -3.86645
H     -0.30473     0.94035    -2.66034
H     -0.30447     1.99443    -4.78657
H     -1.70388     2.39492    -3.77225
C      2.11420     1.48118     0.00879
O      1.13840     0.95563     0.90295
H      1.61668     2.14016    -0.69752
H      1.54279     0.23359     1.43150
H      2.86497     2.05262     0.55584
H      2.60805     0.68285    -0.54903
C      2.41901    -2.29010     1.48144
O      1.82522    -1.26846     2.26424
H      2.34435    -3.25671     1.98002
H      0.90439    -1.54449     2.45099
H      1.94354    -2.36547     0.49996
H      3.47036    -2.04644     1.34639
C     -0.29959    -1.89136    -2.33874
O     -1.10527    -0.72852    -2.33285
H     -0.68099    -2.64544    -1.64630
H     -1.28335    -0.51349    -1.39970
H     -0.30129    -2.30894    -3.34301
H      0.73086    -1.65492    -2.05828
C     -2.12744     1.31764     0.14660
O     -1.26745     0.18624     0.22349
H     -3.10292     0.98636    -0.20266
H     -0.35460     0.52055     0.43025
H     -2.24258     1.77241     1.13046
H     -1.73589     2.06245    -0.54553
C     -1.20639    -0.74494     3.57786
O     -0.83184    -1.59191     2.49303
H     -2.16482    -1.05726     3.99348
H     -1.21283    -1.21847     1.68528
H     -0.44469    -0.82318     4.35330
H     -1.27083     0.29375     3.25246
