 36
-694.8509646106763
C      0.98294     1.60153    -2.04377
O      0.68896     0.21241    -1.93821
H      0.85692     2.11351    -1.09399
H      1.18068    -0.17103    -1.20164
H      2.00139     1.74586    -2.41023
H      0.29900     2.03283    -2.77223
C      3.02125     1.70572     1.11793
O      1.67448     1.29379     1.26466
H      3.71308     0.92008     1.42709
H      1.62218     0.33065     1.14450
H      3.23713     1.96824     0.07982
H      3.18861     2.58126     1.74165
C      2.12942    -2.48994     0.29944
O      1.36815    -1.32313     0.55523
H      2.06328    -3.18491     1.13717
H      0.41997    -1.59598     0.64766
H      1.77224    -2.98831    -0.60315
H      3.16898    -2.20279     0.15902
C     -2.76886     0.72885    -1.42651
O     -1.88275    -0.37973    -1.38780
H     -3.72570     0.40950    -1.01553
H     -1.01035    -0.09991    -1.72883
H     -2.37973     1.55756    -0.83863
H     -2.93615     1.05307    -2.45623
C     -1.70484    -3.20799     0.47041
O     -1.16916    -1.90606     0.63328
H     -1.57281    -3.56722    -0.55281
H     -1.56011    -1.32851    -0.06867
H     -1.19426    -3.88685     1.15163
H     -2.76897    -3.21576     0.70949
C     -1.62806     1.76280     1.84649
O     -0.82337     2.33337     0.83092
H     -2.60079     2.25693     1.83984
H      0.08515     2.03998     0.99105
H     -1.78309     0.69240     1.68341
H     -1.18665     1.89883     2.83732
