 36
-694.8521924415386
C      1.98679     1.26413    -2.72696
O      0.66598     1.57862    -2.32997
H      2.43109     2.16343    -3.15237
H      0.21226     0.76178    -2.10722
H      2.59660     0.93715    -1.88253
H      2.00707     0.48042    -3.48996
C      1.83389     2.24838     0.79903
O      1.42668     1.00505     1.35791
H      2.89267     2.21814     0.53693
H      1.67264     0.29359     0.73340
H      1.25293     2.49373    -0.08835
H      1.69334     3.02573     1.54955
C      2.00332    -2.27223     0.37766
O      1.85083    -1.06067    -0.34530
H      1.16647    -2.43036     1.06340
H      1.05522    -1.13780    -0.90088
H      2.07301    -3.12664    -0.29819
H      2.92341    -2.21212     0.95658
C     -1.30345    -1.60983    -2.71397
O     -0.59531    -1.05280    -1.61798
H     -2.15554    -0.98289    -2.97810
H     -1.25758    -0.81780    -0.91806
H     -0.62815    -1.66765    -3.56534
H     -1.65902    -2.61231    -2.47158
C     -2.82714    -1.53056     1.01868
O     -2.29857    -0.44437     0.27302
H     -2.31636    -2.45878     0.75037
H     -1.94375     0.20127     0.92674
H     -2.69767    -1.36244     2.08683
H     -3.88892    -1.64211     0.80168
C     -1.23252     0.83356     3.49426
O     -1.12411     1.05720     2.10196
H     -2.28765     0.82697     3.76423
H     -0.16634     1.07279     1.87803
H     -0.78873    -0.12570     3.77475
H     -0.73623     1.62547     4.05830
