 36
-694.8536909677447
C      0.17309     2.93721    -0.24562
O     -0.96808     2.20412     0.19457
H      1.07603     2.32858    -0.19600
H     -0.75076     1.84581     1.08806
H      0.01922     3.24494    -1.27748
H      0.31131     3.82687     0.36882
C      2.18851     0.34575    -1.98351
O      1.07378     0.87005    -2.67929
H      1.90436    -0.14542    -1.04959
H      0.27033     0.48566    -2.31623
H      2.72181    -0.37490    -2.60868
H      2.87966     1.15795    -1.75039
C      1.79348    -1.96986     2.68297
O      1.48686    -1.02124     1.67923
H      2.50479    -2.71284     2.31490
H      0.99713    -1.48946     0.97201
H      2.24292    -1.45042     3.52754
H      0.89520    -2.48937     3.02600
C     -1.42886     0.02662     2.68149
O     -0.31090     0.85239     2.37754
H     -1.35335    -0.93302     2.16857
H      0.43619     0.25458     2.16973
H     -1.49257    -0.14576     3.75727
H     -2.34118     0.53025     2.35875
C     -2.64848     0.06541    -1.88373
O     -1.38699     0.06379    -1.23761
H     -2.69646     0.86898    -2.61977
H     -1.29926     0.90390    -0.71264
H     -2.78025    -0.88880    -2.38964
H     -3.45113     0.19742    -1.15654
C      0.48568    -2.74896    -1.31665
O     -0.10411    -2.05742    -0.22786
H      1.47562    -3.10058    -1.02194
H     -0.64361    -1.32723    -0.58890
H     -0.11955    -3.61384    -1.59397
H      0.59172    -2.09641    -2.18469
