 60
-1158.0908780999544
C     -6.03905    -0.95712     0.96121
O     -4.64883    -0.93469     1.21443
H     -6.44305    -1.88262     1.37074
H     -4.31441    -0.03783     1.07883
H     -6.55406    -0.11734     1.43681
H     -6.25660    -0.93459    -0.11164
C      4.61049     1.22506    -1.32887
O      5.02716     0.39956    -0.25672
H      5.43810     1.87671    -1.60719
H      4.44101    -0.36365    -0.25159
H      4.32485     0.64023    -2.20869
H      3.76076     1.84868    -1.04562
C      2.47062     0.97504     2.05810
O      1.19543     1.58676     1.86058
H      2.56055     0.70399     3.10696
H      1.23538     2.05310     1.00075
H      2.57531     0.07520     1.45340
H      3.27757     1.65861     1.80186
C      3.16260    -2.50755    -1.81475
O      2.93816    -1.50467    -0.84035
H      3.91578    -2.18117    -2.53388
H      2.32167    -0.86616    -1.24589
H      3.52539    -3.40320    -1.31429
H      2.24427    -2.74872    -2.35213
C     -2.54263    -0.94770    -1.34434
O     -1.20711    -0.64830    -0.94740
H     -3.19511    -0.09131    -1.19075
H     -1.19237    -0.38518    -0.00176
H     -2.52377    -1.20058    -2.40328
H     -2.92901    -1.79665    -0.78310
C      0.38664    -3.33474     0.45420
O      1.11406    -2.35383     1.15824
H     -0.15648    -3.94848     1.17265
H      1.81252    -2.01150     0.58787
H     -0.33261    -2.89114    -0.23398
H      1.04382    -4.00063    -0.11169
C     -1.18208    -0.74834     2.60840
O     -1.01071     0.25939     1.61249
H     -2.17247    -1.18907     2.49925
H     -0.15290     0.74254     1.77385
H     -0.41916    -1.51261     2.47799
H     -1.10807    -0.31191     3.60309
C      0.92481     0.07889    -3.41398
O      1.00672    -0.01163    -2.00963
H      0.68761    -0.89107    -3.85236
H      0.11658    -0.32027    -1.66126
H      0.15921     0.79356    -3.71581
H      1.88644     0.41075    -3.80257
C     -0.23643     3.00294    -0.92654
O      1.05106     2.45861    -0.68832
H     -1.03139     2.27783    -0.74717
H      1.12853     1.63472    -1.19467
H     -0.37626     3.84621    -0.25204
H     -0.32419     3.37283    -1.95045
C     -3.48950     2.81253     1.43972
O     -3.27781     1.54119     0.85220
H     -4.24152     3.33730     0.85370
H     -2.44014     1.18793     1.20465
H     -3.84181     2.71986     2.46957
H     -2.57197     3.40477     1.43497
