 48
-926.4754488874499
C      2.21388    -1.15099     2.43441
O      2.90756    -1.33205     1.20604
H      1.37885    -1.84862     2.51740
H      2.21724    -1.48610     0.53188
H      2.90445    -1.32960     3.25655
H      1.82297    -0.13444     2.52526
C      0.05968    -2.61736    -0.47423
O      0.77228    -1.38470    -0.41733
H     -0.80009    -2.54350    -1.13780
H      0.20714    -0.68989    -0.04771
H      0.74336    -3.37231    -0.85785
H     -0.28849    -2.92139     0.51316
C     -3.93762    -2.69958     1.07610
O     -2.85579    -1.82346     0.84568
H     -3.90113    -3.57339     0.41780
H     -2.84302    -1.61036    -0.10383
H     -3.88914    -3.04924     2.10684
H     -4.90340    -2.20587     0.93127
C      3.70167     1.00611    -0.94846
O      3.81486     1.08176     0.46925
H      4.64933     0.70573    -1.39344
H      3.66596     0.17013     0.80630
H      2.93266     0.28788    -1.23669
H      3.43404     1.98857    -1.33847
C     -0.19303     0.99186    -2.68642
O     -1.32598     0.96932    -1.83246
H     -0.52679     0.79919    -3.70436
H     -1.01833     1.13923    -0.91783
H      0.28939     1.97079    -2.66529
H      0.53599     0.23188    -2.40471
C     -4.14655    -0.90622    -2.36886
O     -2.87163    -1.19415    -1.83235
H     -4.06582    -0.53419    -3.39212
H     -2.31680    -0.38986    -1.93468
H     -4.73583    -1.82153    -2.37999
H     -4.66810    -0.15829    -1.76492
C     -1.29451     1.14661     1.72770
O     -0.37642     1.12327     0.63629
H     -0.85974     0.63910     2.59001
H      0.41422     1.65890     0.89253
H     -1.53234     2.17539     2.00074
H     -2.20245     0.62557     1.43617
C      1.84244     3.86246     0.83164
O      1.73280     2.52778     1.29834
H      2.83969     4.26064     1.01735
H      2.56797     2.06196     1.05870
H      1.63641     3.92040    -0.23996
H      1.12005     4.47986     1.36119
