 54
-1042.2809522148225
C      1.30745    -0.64797    -1.13495
O     -0.09330    -0.62133    -0.83524
H      1.75040    -1.58138    -0.80097
H     -0.18081    -0.57046     0.14986
H      1.42222    -0.55864    -2.21381
H      1.82145     0.18917    -0.66338
C      0.19141     4.54587    -0.76086
O      0.40379     3.16494    -0.49244
H      0.44171     4.78627    -1.79135
H     -0.00919     2.65319    -1.20988
H     -0.84972     4.82290    -0.57751
H      0.82940     5.12343    -0.09485
C     -2.44370     1.63947    -1.62756
O     -1.11648     1.44726    -2.10711
H     -3.01786     0.71614    -1.71829
H     -0.76513     0.62406    -1.69383
H     -2.44172     1.95547    -0.58209
H     -2.91272     2.40979    -2.23668
C     -2.71752    -2.54361     0.15963
O     -1.50455    -3.09759    -0.33743
H     -3.26976    -2.04827    -0.64058
H     -1.03846    -2.39737    -0.81235
H     -3.32806    -3.35298     0.55130
H     -2.52294    -1.82267     0.95430
C      3.54334    -3.93491     0.82276
O      2.55302    -2.95780     1.08188
H      3.83603    -4.46319     1.73495
H      1.70871    -3.41483     1.25416
H      3.20288    -4.67363     0.09136
H      4.42401    -3.43509     0.41949
C     -0.47655    -3.86520     2.73350
O      0.14139    -4.13662     1.49173
H     -0.85263    -2.84263     2.78585
H     -0.48137    -3.85096     0.79354
H     -1.30511    -4.55290     2.91131
H      0.25612    -4.01243     3.52665
C      1.01228     2.95751    -4.18091
O     -0.32242     3.33659    -3.90816
H      1.07617     1.94438    -4.58721
H     -0.71542     2.60574    -3.41258
H      1.42237     3.64818    -4.91449
H      1.63249     3.00062    -3.28074
C      0.91186    -0.41102     2.50756
O     -0.32542    -0.31127     1.79780
H      1.14330     0.52838     3.00730
H     -0.59135     0.63501     1.83533
H      0.83921    -1.19819     3.25547
H      1.72822    -0.67096     1.83760
C     -0.34657     3.13721     2.83202
O     -0.70651     2.29610     1.75390
H      0.73012     3.32311     2.84868
H     -0.25661     2.64073     0.94807
H     -0.86411     4.09545     2.76443
H     -0.63167     2.65561     3.76650
