 36
-694.856246808061
C     -1.57427     1.79594    -3.02650
O     -1.49754     1.06341    -1.81545
H     -2.22732     1.26722    -3.71987
H     -0.91990     1.57587    -1.20125
H     -1.99053     2.78867    -2.84856
H     -0.58815     1.90789    -3.48238
C      3.06547     1.93251     1.51818
O      2.33203     1.21090     0.54471
H      2.90159     2.99915     1.36785
H      2.14603     0.32752     0.92854
H      2.74220     1.66692     2.52694
H      4.13389     1.72836     1.42562
C      2.64590    -2.09937     1.86481
O      1.65591    -1.10849     1.64709
H      3.53052    -1.62897     2.29269
H      0.87028    -1.56217     1.25924
H      2.28412    -2.85544     2.56340
H      2.92276    -2.59182     0.93018
C     -2.28377    -2.15114    -2.36408
O     -1.08744    -1.55934    -1.89031
H     -2.38190    -3.14720    -1.93344
H     -1.21745    -0.58786    -1.93066
H     -3.15403    -1.55746    -2.07624
H     -2.26412    -2.24258    -3.45179
C     -0.65203     2.13113     1.20972
O     -0.00409     2.31276    -0.04103
H     -1.73013     2.10468     1.04620
H      0.91243     1.97188     0.07730
H     -0.34267     1.19541     1.67676
H     -0.42843     2.95728     1.88523
C     -1.61885    -1.49216     1.25422
O     -0.53408    -2.16244     0.62868
H     -1.86700    -0.57223     0.72343
H     -0.66590    -2.04304    -0.34005
H     -2.50104    -2.13204     1.28922
H     -1.33516    -1.24382     2.27775
