 54
-1042.2797817863668
C      4.28950    -2.89592    -0.02100
O      3.46803    -2.29176     0.96623
H      3.98567    -2.56989    -1.01842
H      3.68004    -1.32527     0.96268
H      5.33593    -2.62900     0.13194
H      4.18329    -3.97501     0.05278
C     -5.75453     0.46732    -0.53363
O     -4.80788     0.44294    -1.59081
H     -6.05073    -0.55688    -0.31525
H     -4.53896     1.37022    -1.77239
H     -5.32678     0.91178     0.36837
H     -6.64196     1.03409    -0.81796
C     -0.11203    -1.85085     1.11721
O      0.75742    -1.75525    -0.01638
H      0.23091    -1.21555     1.93478
H      1.59292    -2.18365     0.21510
H     -1.10516    -1.54233     0.80669
H     -0.14706    -2.87645     1.48112
C      3.73445     0.89594     2.20825
O      3.82444     0.31771     0.91248
H      2.88058     0.51058     2.77192
H      3.04135     0.62658     0.39509
H      4.64756     0.65455     2.74954
H      3.64992     1.98136     2.14212
C      1.59248     1.23541    -1.72034
O      1.58599     0.79214    -0.37233
H      0.90050     2.06697    -1.83192
H      1.14637    -0.08306    -0.31475
H      2.59592     1.57325    -1.98279
H      1.30090     0.43712    -2.40598
C     -3.42613     3.22318    -3.24577
O     -3.69573     2.87546    -1.89811
H     -2.70751     4.04239    -3.29977
H     -2.83375     2.65930    -1.47308
H     -3.02699     2.37258    -3.80655
H     -4.35526     3.54379    -3.71153
C     -1.14732     2.38692     0.48695
O     -1.48111     1.92788    -0.81413
H     -1.47363     1.68582     1.25728
H     -1.67766     0.96573    -0.78043
H     -0.07124     2.52271     0.56296
H     -1.63684     3.34563     0.66011
C      3.18023    -2.28090     4.48524
O      2.15967    -2.29201     3.50864
H      3.87579    -1.45113     4.33193
H      2.57993    -2.41544     2.64709
H      2.71565    -2.15994     5.46320
H      3.75523    -3.21116     4.48699
C     -1.90948    -1.27638    -2.04941
O     -2.44337    -0.58781    -0.92871
H     -1.90750    -0.64445    -2.94145
H     -3.36831    -0.33652    -1.15013
H     -0.88723    -1.57179    -1.82692
H     -2.49730    -2.16896    -2.26623
