 36
-694.8533214535332
C     -2.29316     1.85770    -2.08743
O     -1.07211     1.51139    -1.46258
H     -2.24072     2.89636    -2.40844
H     -1.13547     0.56949    -1.19174
H     -2.46962     1.23217    -2.96533
H     -3.13631     1.73885    -1.40296
C      2.16093    -0.66279    -1.98085
O      2.06784    -1.91300    -1.32623
H      2.22023    -0.84978    -3.05257
H      1.78456    -1.76172    -0.41793
H      1.29422    -0.02509    -1.78855
H      3.06447    -0.12278    -1.68290
C      0.54831    -2.74131     2.09748
O      0.68069    -1.65404     1.19714
H      0.38453    -3.64716     1.51721
H      0.60029    -0.81401     1.71392
H      1.45655    -2.85719     2.68889
H     -0.29658    -2.59268     2.77138
C      1.52725     2.94197     0.16254
O      0.21725     2.62305     0.60589
H      2.08148     2.04067    -0.11145
H     -0.29679     2.32996    -0.17599
H      1.49435     3.60389    -0.70308
H      2.05445     3.44669     0.96971
C     -1.26043    -1.99697    -1.72093
O     -1.19533    -1.03166    -0.67908
H     -2.03745    -1.69830    -2.42439
H     -0.54532    -1.33688    -0.01653
H     -0.30940    -2.07062    -2.24507
H     -1.52442    -2.97894    -1.32301
C     -1.14614     0.65672     2.92022
O      0.16021     0.62210     2.36248
H     -1.16529     0.01164     3.79684
H      0.22626     1.39207     1.75118
H     -1.40810     1.66737     3.23105
H     -1.89053     0.30601     2.20319
