 36
-694.847808911536
C      2.66368     0.77894    -0.43595
O      1.35200     0.82034     0.11575
H      3.01242     1.78470    -0.66834
H      0.73582     1.19659    -0.56420
H      3.32933     0.34279     0.30547
H      2.68539     0.16942    -1.33675
C     -1.36102     2.69491    -0.94670
O     -0.58510     1.60692    -1.43286
H     -2.26943     2.81253    -1.53913
H     -1.11661     0.78977    -1.32607
H     -1.63617     2.55211     0.09886
H     -0.76892     3.60216    -1.04058
C      0.24339    -2.07895     1.96976
O      0.53251    -1.77646     0.60812
H     -0.31855    -3.00915     1.98249
H      0.93735    -0.89130     0.56246
H      1.16309    -2.21765     2.53778
H     -0.35192    -1.29143     2.42753
C      0.77586    -1.72299    -2.82196
O      1.77942    -2.22016    -1.95728
H      0.56935    -0.66678    -2.63963
H      1.38986    -2.33268    -1.08314
H      1.13031    -1.82965    -3.84766
H     -0.16281    -2.27656    -2.72394
C     -2.77000    -0.61199     0.17490
O     -1.74547    -0.74925    -0.80656
H     -3.62161    -0.12222    -0.29447
H     -1.05017    -1.31614    -0.43838
H     -3.09869    -1.58729     0.53678
H     -2.42941    -0.01214     1.01901
C     -0.04791     2.13178     3.25008
O     -0.51885     1.26356     2.22934
H     -0.90549     2.46110     3.83538
H      0.17237     1.15978     1.55917
H      0.65345     1.62255     3.91848
H      0.44521     3.01434     2.83114
