 60
-1158.0973540983498
C      0.54344     4.04882    -1.31185
O      1.71078     3.57359    -0.67008
H      0.59661     3.93342    -2.39697
H      1.95247     2.74489    -1.09249
H     -0.35240     3.53697    -0.95834
H      0.44720     5.10917    -1.08113
C      2.39919     1.49667    -3.76066
O      1.75779     1.21899    -2.52249
H      3.24598     0.82064    -3.87642
H      0.78738     1.33151    -2.65570
H      1.71217     1.34611    -4.59413
H      2.76528     2.52467    -3.77843
C      0.11814    -2.78732     2.77410
O      0.36001    -1.86010     1.72598
H      0.04282    -3.79918     2.37405
H      1.28597    -1.99999     1.38138
H      0.92602    -2.75726     3.50317
H     -0.81428    -2.52990     3.27184
C      1.34615    -1.98882    -2.21016
O      2.43639    -1.23162    -1.69263
H      1.24422    -1.84474    -3.28645
H      2.26128    -0.29510    -1.92196
H      1.54319    -3.04523    -2.03086
H      0.40374    -1.72558    -1.72537
C      3.38489    -3.46073     0.68275
O      2.71120    -2.21538     0.75613
H      4.33508    -3.35661     0.16062
H      2.74077    -1.81097    -0.14378
H      3.58247    -3.81120     1.69267
H      2.77975    -4.20713     0.16244
C     -2.77407    -2.11829     0.49720
O     -1.68080    -1.34769     0.02275
H     -3.39204    -2.41751    -0.34844
H     -0.91009    -1.56337     0.57626
H     -2.42174    -3.01740     1.00457
H     -3.37826    -1.54799     1.20060
C     -3.07684     0.19072     4.65306
O     -2.81369    -0.36895     3.37980
H     -2.15883     0.51705     5.15043
H     -2.00868     0.04419     3.02628
H     -3.75111     1.05059     4.57858
H     -3.55485    -0.56467     5.27903
C     -2.88992     1.95485     0.46950
O     -2.10165     1.26384    -0.48582
H     -2.50717     1.79580     1.47541
H     -1.98815     0.33721    -0.19219
H     -2.84912     3.01753     0.23547
H     -3.93054     1.63082     0.41848
C      0.33347     1.59548     1.80833
O     -0.40330     0.60092     2.50394
H     -0.03036     2.57289     2.11704
H     -0.02289    -0.25900     2.25423
H      1.39419     1.53637     2.04859
H      0.21386     1.51028     0.72897
C     -1.48955     0.31112    -3.47839
O     -0.89496     1.42653    -2.82781
H     -1.72993    -0.47548    -2.76175
H     -1.36864     1.51658    -1.97247
H     -2.40495     0.61403    -3.98590
H     -0.79317    -0.08623    -4.21924
