 48
-926.4767875174518
C      0.32305    -1.24722     2.11075
O     -0.93310    -1.49013     1.47732
H      0.86170    -0.42431     1.63754
H     -0.73667    -1.79108     0.57071
H      0.13827    -0.99087     3.15327
H      0.94878    -2.13879     2.08107
C     -2.42639     3.91615     0.96645
O     -1.44292     2.92263     0.74887
H     -3.24680     3.81672     0.25076
H     -1.80340     2.08307     1.10453
H     -2.83885     3.84420     1.97435
H     -1.97017     4.89769     0.84954
C     -0.84572    -3.10190    -1.80965
O     -0.23062    -2.05959    -1.07521
H     -0.91920    -2.82899    -2.86133
H     -0.36773    -1.21360    -1.58261
H     -0.24741    -4.00656    -1.71818
H     -1.84637    -3.29908    -1.41977
C      2.69917    -1.78661    -2.35597
O      2.50324    -2.20989    -1.01377
H      1.97062    -1.02382    -2.63650
H      1.54089    -2.28329    -0.89730
H      3.69866    -1.36460    -2.44987
H      2.61174    -2.62882    -3.04527
C     -3.24539     0.59500     2.82495
O     -2.45984     0.66319     1.65194
H     -2.63887     0.76130     3.71865
H     -1.93028    -0.16355     1.59653
H     -4.01512     1.36359     2.77626
H     -3.73594    -0.37520     2.90947
C      1.57722     2.31423    -0.82626
O      0.23890     2.39427    -1.30666
H      2.03868     3.30238    -0.82777
H     -0.32841     2.69578    -0.56963
H      1.62247     1.89488     0.17938
H      2.15232     1.66262    -1.48375
C     -2.15539     0.37407    -2.03016
O     -0.76816     0.17325    -2.30975
H     -2.65979    -0.59284    -2.03736
H     -0.31775     1.00682    -2.02831
H     -2.30102     0.83904    -1.05338
H     -2.60430     1.00503    -2.79590
C      4.07691    -0.70899     1.72296
O      3.32310    -0.17399     0.65326
H      4.49415     0.11532     2.30072
H      3.08245    -0.91644     0.07482
H      3.45123    -1.31116     2.38904
H      4.89874    -1.33786     1.37015
