 24
-463.2288733380707
C      1.36062    -1.94709     1.72581
O      1.22720    -0.53955     1.61805
H      2.36381    -2.26601     1.43830
H      1.47385    -0.29194     0.70370
H      1.19252    -2.22691     2.76255
H      0.63547    -2.46868     1.09491
C     -2.27778     0.91031    -2.06768
O     -1.26548     0.16838    -1.40957
H     -3.24175     0.77846    -1.57221
H     -1.45325     0.19155    -0.44734
H     -2.03494     1.97560    -2.08598
H     -2.36021     0.54876    -3.09058
C     -1.21963     1.76341     1.57602
O     -1.27847     0.37745     1.26420
H     -0.82278     1.92015     2.57908
H     -0.42411    -0.01168     1.54853
H     -0.59125     2.30454     0.86504
H     -2.23037     2.16699     1.53395
C      2.12156    -0.72612    -1.92725
O      1.40741     0.07643    -1.00280
H      1.69646    -1.73125    -1.98674
H      0.47416     0.13652    -1.28916
H      2.11238    -0.27985    -2.92332
H      3.15366    -0.79733    -1.58831
