 60
-1158.098447316526
C      1.46445     5.04281     1.86882
O      1.10997     3.78070     1.33488
H      0.90601     5.24877     2.78392
H      0.14179     3.78647     1.17455
H      2.52682     5.03197     2.10235
H      1.26828     5.84358     1.15011
C      1.15675    -0.13833     1.48259
O     -0.17326    -0.56316     1.19999
H      1.46608    -0.49834     2.46589
H     -0.16719    -1.50865     0.97550
H      1.86484    -0.49920     0.73577
H      1.18581     0.94925     1.49757
C      1.13095     2.89505    -1.76235
O      2.09854     2.46667    -0.81149
H      0.16237     2.42461    -1.58510
H      1.88655     2.92971     0.02449
H      1.00891     3.97698    -1.72228
H      1.47543     2.62228    -2.76054
C     -2.74244    -4.41093    -1.58694
O     -2.56519    -3.35281    -0.66226
H     -2.20896    -4.22125    -2.52337
H     -1.61059    -3.19824    -0.57440
H     -2.38944    -5.35865    -1.17090
H     -3.80528    -4.49724    -1.80570
C      0.94794    -3.85472     0.73907
O      0.09578    -3.07445    -0.08907
H      0.33194    -4.32801     1.49614
H      0.65918    -2.62334    -0.76110
H      1.45655    -4.61577     0.14893
H      1.69995    -3.23169     1.22518
C     -2.46466    -2.79329     2.97040
O     -2.15229    -3.91984     2.17592
H     -3.54418    -2.63077     3.04612
H     -2.48284    -3.77407     1.28180
H     -2.07701    -2.96931     3.97365
H     -2.00405    -1.88422     2.57621
C     -2.15578     4.46132    -0.20577
O     -1.47131     3.60213     0.68371
H     -3.22782     4.25604    -0.20698
H     -1.68365     2.67873     0.42895
H     -1.99977     5.49027     0.11513
H     -1.77981     4.34893    -1.22616
C      0.50600    -0.81679    -2.48544
O      1.47674    -1.60004    -1.78845
H      0.99571    -0.15660    -3.19921
H      2.27167    -1.03346    -1.70174
H     -0.16293    -1.47999    -3.03432
H     -0.08267    -0.20947    -1.79690
C      4.76296     0.38151    -1.29828
O      3.38313     0.27481    -1.61282
H      5.28414    -0.47342    -1.72433
H      2.95181     1.10873    -1.32836
H      5.18429     1.29767    -1.71676
H      4.91239     0.38772    -0.21604
C     -2.98417     0.26709    -0.26837
O     -1.83318     1.06714    -0.03104
H     -3.28988    -0.25869     0.63632
H     -1.20314     0.49107     0.45302
H     -3.79761     0.91278    -0.59786
H     -2.78097    -0.47181    -1.04351
