 48
-926.4781630070015
C     -1.84876    -1.01908     3.34175
O     -0.44565    -0.94266     3.13450
H     -2.38293    -1.10423     2.39187
H     -0.25821    -0.03664     2.80820
H     -2.06155    -1.89985     3.94453
H     -2.21703    -0.13855     3.86937
C     -2.22514    -3.67248    -0.94428
O     -1.88877    -2.47291    -0.27401
H     -2.93875    -3.44752    -1.73590
H     -1.12888    -2.66581     0.32192
H     -1.34169    -4.13568    -1.39038
H     -2.68252    -4.38533    -0.25671
C     -0.55293    -0.57548    -2.56549
O     -1.65128    -0.25766    -1.70788
H      0.32053    -0.88827    -1.99339
H     -1.81853    -1.06646    -1.17115
H     -0.82751    -1.36761    -3.26111
H     -0.28729     0.30841    -3.14428
C      1.08140     3.48884    -2.41739
O      1.29829     2.57725    -1.35476
H      0.41541     3.06160    -3.17191
H      0.43330     2.40809    -0.94623
H      0.64166     4.42091    -2.05435
H      2.03981     3.71223    -2.88084
C     -2.37783     2.67290    -0.27975
O     -1.19673     1.89124    -0.34421
H     -2.34556     3.28746     0.61853
H     -1.41484     1.06989    -0.86942
H     -2.45116     3.32091    -1.15450
H     -3.25432     2.02857    -0.23896
C      1.47727    -2.58805     0.86714
O      0.17511    -2.84533     1.37086
H      2.19935    -2.52463     1.68160
H      0.02021    -2.20572     2.10162
H      1.76275    -3.41206     0.21590
H      1.51649    -1.65758     0.29686
C      1.35610     1.67104     1.85571
O     -0.03721     1.48632     2.08411
H      1.87588     1.53899     2.80327
H     -0.49863     1.64678     1.24291
H      1.74132     0.94241     1.14017
H      1.56788     2.67333     1.48244
C      4.08168     0.14825    -1.53591
O      2.68781     0.07412    -1.29439
H      4.55512     0.92130    -0.92369
H      2.31389     0.96199    -1.37226
H      4.52347    -0.81421    -1.27746
H      4.29553     0.35475    -2.58842
