 36
-694.8467260934116
C     -0.24132     3.61960    -0.44446
O     -0.66403     2.28135    -0.24284
H     -0.68212     3.98300    -1.36959
H     -0.07133     1.86006     0.42077
H     -0.56785     4.25557     0.37981
H      0.84554     3.67520    -0.52560
C      2.21148     0.91566     1.50233
O      0.80004     0.77624     1.39435
H      2.63075     0.12104     2.11670
H      0.61828    -0.10769     1.02223
H      2.69129     0.88372     0.52266
H      2.42096     1.87398     1.97488
C      3.70716    -2.45803    -0.59237
O      2.95350    -2.09611     0.55135
H      4.76123    -2.32031    -0.35663
H      2.03517    -1.98937     0.27896
H      3.54779    -3.50450    -0.86360
H      3.45771    -1.83105    -1.45384
C     -0.86364    -2.25769     0.34811
O      0.19756    -1.41767    -0.09053
H     -1.00798    -3.07947    -0.35278
H     -0.09925    -0.95253    -0.90787
H     -0.58661    -2.67399     1.31469
H     -1.78909    -1.69350     0.43977
C     -2.77500     0.51112     1.89166
O     -2.88175     0.62396     0.48045
H     -1.76732     0.22449     2.20168
H     -2.25428     1.29804     0.19188
H     -3.03961     1.44662     2.38970
H     -3.47003    -0.26138     2.22160
C     -1.98808    -0.29837    -2.66144
O     -0.70961     0.01852    -2.10771
H     -1.92363    -1.29619    -3.08967
H     -0.74232     0.91346    -1.73762
H     -2.75776    -0.28332    -1.89145
H     -2.24720     0.40456    -3.45367
