 40
-1516.6442646230496
O      0.85025     2.37385    -0.43570
H      1.72596     1.98173    -0.20965
O      0.30290     2.65963     0.85623
H      0.11552     1.74726     1.17421
O      4.13244     0.96402    -0.53824
H      4.86419     1.49853    -0.21821
O      3.13452     1.28937     0.42004
H      3.03031     0.45683     0.93746
O     -2.85876     1.93035     1.01625
H     -3.08396     1.45269     0.20294
O     -2.33862     3.14126     0.45355
H     -1.38648     3.05569     0.65573
O     -1.22645     0.51465     2.55728
H     -1.87977     1.11824     2.14216
O     -0.44184     0.21338     1.41831
H     -0.98418    -0.45874     0.93820
O     -0.18640     1.14533    -2.89459
H      0.37953     1.64087    -3.49513
O     -0.97805     2.16630    -2.28979
H     -0.40144     2.38553    -1.51905
O      0.68952    -0.74091    -1.24379
H      0.36638    -0.00587    -1.81645
O      1.94897    -1.06819    -1.83372
H      2.42371    -1.31952    -1.02950
O      2.37893    -0.93794     1.75010
H      1.41653    -0.82729     1.68339
O      2.61775    -2.03869     0.86409
H      2.20723    -2.78379     1.33409
O     -1.83768    -1.62674     0.01414
H     -2.27428    -1.31840    -0.80102
O     -0.92170    -2.61414    -0.47260
H     -0.19768    -2.02330    -0.79652
O      0.18371    -3.25096     1.95844
H     -0.28817    -3.24587     1.10449
O      1.17592    -4.25308     1.70505
H      1.16946    -4.72227     2.54385
O     -3.26592     0.92907    -1.47186
H     -2.56973     1.42429    -1.94508
O     -3.12337    -0.36765    -2.03087
H     -4.02417    -0.54088    -2.31913
