 36
-1364.972963711739
O      2.98475     1.29728    -0.38506
H      2.45782     0.56694    -0.76179
O      2.14404     2.42845    -0.62733
H      1.62525     2.46677     0.20396
O      0.96378    -1.03023     1.92653
H      1.72752    -0.45956     2.17296
O     -0.12581    -0.15501     2.27936
H     -0.86773    -0.61104     1.85215
O     -3.16776    -1.05748    -2.36755
H     -2.77461    -0.18246    -2.50100
O     -2.12469    -1.88954    -2.87942
H     -2.07656    -2.56979    -2.19328
O     -3.43783    -0.25564     0.50853
H     -3.38508    -0.79611    -0.29440
O     -2.14112     0.32750     0.47045
H     -2.24524     1.16500     0.95093
O     -1.02835     0.82204    -1.85370
H     -1.35512     0.59821    -0.95549
O     -0.57434     2.15793    -1.65489
H      0.38915     2.05801    -1.71261
O      0.66695    -1.64393    -1.83829
H     -0.06417    -1.15167    -2.25418
O      1.22849    -0.64349    -0.99963
H      0.98847    -0.92252    -0.09846
O      0.44778     2.28946     1.40266
H      0.24346     1.39974     1.76532
O     -0.83625     2.73428     0.96744
H     -0.73107     2.69175    -0.00086
O      2.97183     0.71907     2.20804
H      3.13772     1.04865     1.29309
O      4.03136    -0.22602     2.36027
H      4.52574     0.17326     3.08301
O     -0.98249    -3.29708    -0.50137
H     -0.22241    -2.84597    -0.91836
O     -1.20955    -2.46057     0.64109
H     -0.86669    -3.00568     1.36016
