 32
-1213.3086123503037
O      1.28971    -0.72465     2.85805
H      0.57664    -1.34312     3.11990
O      1.89458    -1.43808     1.77414
H      2.18284    -0.67917     1.23226
O      0.70719    -1.07387    -3.60316
H      0.02933    -1.25267    -4.26315
O      0.80962    -2.31573    -2.89186
H      0.38141    -2.05176    -2.05174
O     -2.13531     0.76803    -1.65493
H     -1.31690     1.16854    -2.00196
O     -1.88614     0.73337    -0.24666
H     -1.74075     1.67810    -0.03704
O      0.23130     1.92161    -2.45889
H      0.34485     2.61918    -1.79220
O      1.16063     0.94908    -1.97390
H      0.96100     0.18897    -2.56900
O      1.85431     0.87972     0.55892
H      1.51582     0.81469    -0.35859
O      0.67699     1.26272     1.28203
H      0.70282     0.60890     2.01551
O     -0.37392    -2.20265     0.46657
H      0.51183    -2.05414     0.84759
O     -0.30394    -1.33458    -0.67079
H     -0.93767    -0.60600    -0.45900
O      0.07824     3.41636    -0.12583
H      0.38380     2.69557     0.46737
O     -1.32711     3.35177     0.11727
H     -1.46216     4.04131     0.77459
O     -1.85598    -1.83954     2.75509
H     -1.46076    -1.95390     1.86877
O     -0.76494    -2.23729     3.58644
H     -0.96587    -3.15657     3.78977
