 16
-606.6360033884081
O     -1.42483    -1.23020     1.01486
H     -2.34845    -1.26379     1.27586
O     -1.23457     0.18273     0.96301
H     -0.41390     0.28476     1.49031
O      2.15798     0.23964     1.62730
H      1.78060     0.15132     0.73055
O      0.99636     0.64087     2.36840
H      1.23659     1.52957     2.64729
O      1.15899    -0.25901    -0.84029
H      0.35175    -0.34959    -1.39439
O      1.77320     0.89204    -1.41050
H      2.64506     0.54209    -1.60783
O     -2.09718     0.21027    -1.66198
H     -1.79250     0.21469    -0.73691
O     -1.08149    -0.60032    -2.26901
H     -1.52485    -1.45072    -2.36407
