 32
-1213.3142862217278
O      1.30800    -1.94983    -0.80297
H      1.47680    -1.55515    -1.67794
O      1.88047    -0.93063     0.04174
H      1.81348    -1.37384     0.90458
O     -0.65095    -2.35573     0.97688
H     -0.16369    -2.48299     0.14319
O      0.45953    -2.28056     1.88480
H      0.20243    -1.54002     2.47037
O      1.05109     0.34563    -3.35870
H      0.18557     0.02754    -3.03233
O      1.86680    -0.80203    -3.16248
H      2.00375    -1.11990    -4.06019
O     -0.99888     2.74238     0.95906
H     -0.40527     2.22876     0.35958
O     -0.12087     3.15056     2.00465
H      0.44107     3.80575     1.57514
O     -1.30869    -0.29927    -2.25913
H     -1.20770     0.09925    -1.37060
O     -1.57257    -1.66313    -1.96110
H     -2.52980    -1.66691    -1.85731
O      1.51046     2.02689    -1.23607
H      1.51365     1.61379    -2.11492
O      0.48985     1.24022    -0.62574
H      0.99384     0.45303    -0.28758
O      0.73446     0.62678     2.36336
H      0.41952     1.55118     2.37443
O     -0.15318    -0.04664     3.26475
H     -1.03387     0.16559     2.88794
O     -2.36828     0.50899     1.82053
H     -2.18580     1.43520     1.59276
O     -2.04298    -0.09940     0.56224
H     -1.54447    -0.90398     0.82852
