 36
-1364.9736552600664
O     -0.69604    -1.68482    -0.71121
H     -1.56843    -1.52481    -0.29114
O      0.20075    -1.52913     0.38970
H      0.52521    -0.61800     0.20251
O     -2.91936    -1.51073     0.78012
H     -2.62426    -1.79249     1.66847
O     -3.70487    -0.35534     1.05469
H     -3.05346     0.24639     1.46023
O     -0.43597    -1.74853     2.92746
H     -0.23507    -1.85435     1.96835
O     -1.74542    -2.29510     3.03286
H     -1.57674    -3.17836     3.37363
O      2.57565    -1.71259    -1.98482
H      2.87328    -1.00807    -1.39317
O      1.32748    -1.20429    -2.44658
H      0.68002    -1.62187    -1.84617
O     -1.89818     1.31200    -0.99076
H     -1.34064     1.08943    -1.75313
O     -3.21583     1.24058    -1.54040
H     -3.62226     0.60310    -0.93751
O     -0.43135     0.97458     2.59439
H     -0.53910     0.05743     2.90503
O     -1.69176     1.24905     1.99600
H     -1.44300     1.42560     1.07294
O      1.40842     2.02509    -2.52743
H      1.33835     2.81632    -3.06840
O      0.34330     1.22447    -3.03350
H      0.78030     0.35019    -3.01434
O      4.62440     1.20581    -0.47670
H      5.44182     0.90007    -0.07499
O      3.68140     0.30889     0.11296
H      3.06087     0.92341     0.54976
O      1.48383     1.66690     0.89055
H      0.83628     1.39992     1.58004
O      0.94262     0.89539    -0.19467
H      1.21717     1.41507    -0.98458
