 36
-1364.969991759099
O      1.45806     2.05960     1.13587
H      2.07923     1.43494     1.54875
O      1.30496     3.09588     2.10508
H      0.50372     2.80380     2.55927
O     -0.60828    -1.58092    -0.80333
H     -1.20655    -1.05712    -1.36479
O     -1.46379    -2.04456     0.24231
H     -1.42706    -1.30782     0.89138
O     -1.70593    -0.14369     2.10811
H     -2.38204     0.52768     1.87954
O     -0.58646     0.67273     2.44735
H      0.15042     0.06759     2.23743
O      1.53063    -0.79413     1.71622
H      1.45897    -1.74763     1.50118
O      2.83842    -0.44781     1.27137
H      2.73765    -0.47279     0.30507
O     -3.67001     1.40949     1.18062
H     -4.44715     0.98966     0.80099
O     -3.22231     2.23531     0.09829
H     -2.31919     1.89016    -0.04106
O     -0.70163     1.38405    -0.28080
H     -0.03638     1.60519     0.41767
O     -0.17210     2.06258    -1.42569
H      0.72512     1.69266    -1.44368
O      2.23737    -0.87228    -1.62031
H      1.36990    -1.22904    -1.35433
O      1.88928     0.29387    -2.35953
H      1.16197    -0.02697    -2.92722
O     -1.43414     0.22722    -2.91589
H     -1.02110     1.00702    -2.49214
O     -0.35550    -0.28198    -3.70162
H     -0.57935     0.03783    -4.58227
O      1.90529    -3.72920    -0.11286
H      2.18089    -4.58494     0.22710
O      0.99343    -3.32602     0.90457
H      0.15609    -3.25562     0.42042
