 40
-1516.647245138277
O      4.31094     1.08138    -1.35293
H      5.11350     0.54814    -1.37386
O      3.73344     0.81178    -2.62691
H      2.95086     0.29799    -2.37227
O     -0.25050     1.85658     0.49450
H      0.58154     1.41302     0.74314
O     -0.68248     2.46148     1.70839
H     -1.40859     1.84638     1.94714
O     -2.60685     0.59620     2.07085
H     -2.58600     0.13528     1.20480
O     -1.97495    -0.34497     2.94162
H     -2.64800    -1.05036     3.01340
O     -3.31733    -2.63439     2.79247
H     -4.23662    -2.87763     2.65195
O     -2.82087    -2.67626     1.45447
H     -1.86323    -2.79397     1.61795
O      0.31166    -1.34225     1.96392
H     -0.50478    -0.93569     2.33057
O     -0.13711    -2.66297     1.63360
H      0.12550    -2.69166     0.69020
O     -0.72518    -2.01449    -1.64307
H     -0.40360    -1.56581    -2.44144
O      0.47053    -2.30196    -0.92220
H      0.93377    -1.44863    -0.90384
O      0.63007     3.71338    -1.45858
H      0.37896     3.60481    -0.53146
O      1.64901     2.71111    -1.54845
H      2.40663     3.19975    -1.89278
O     -2.43189    -0.28952    -0.43391
H     -1.86669    -0.99652    -0.80283
O     -2.01329     0.85475    -1.17973
H     -1.43702     1.30059    -0.52296
O      2.50979    -0.81607     0.53934
H      1.83421    -1.03756     1.21163
O      2.41753     0.61161     0.53422
H      3.15613     0.84236    -0.05999
O     -0.21081     0.24855    -3.07462
H     -0.96570     0.53918    -2.52098
O      0.83759     0.26026    -2.11263
H      0.98846     1.21959    -1.98009
