 40
-1516.647820522067
O      2.00549    -1.25062    -0.57531
H      1.08200    -0.96640    -0.74511
O      2.48337    -0.10486     0.12017
H      2.93536     0.37355    -0.59892
O     -2.52147     0.87073     1.44937
H     -2.20847     0.28013     0.73368
O     -1.62284     0.56646     2.50727
H     -0.77705     0.92508     2.16260
O      0.70666     2.39379     0.33051
H     -0.15804     2.83443     0.42703
O      0.60962     1.37679     1.33856
H      1.20105     0.68266     0.97125
O     -0.21729     1.96317    -2.59158
H      0.73330     1.98788    -2.77383
O     -0.46422     3.34323    -2.30978
H     -1.22878     3.26378    -1.71553
O     -1.04711    -2.02138     2.21595
H     -1.43347    -1.15412     2.46002
O      0.29801    -1.60661     1.91654
H      0.75120    -2.45694     1.77076
O      2.57197     2.55349    -1.99654
H      2.15241     2.60557    -1.12049
O      3.50119     1.49393    -1.81630
H      4.34444     1.95810    -1.77686
O     -1.86047     3.28898     0.70140
H     -2.22521     2.48146     1.14053
O     -2.54996     3.23029    -0.54496
H     -3.13283     3.99146    -0.47351
O     -0.36548    -0.31452    -1.10707
H     -0.53231     0.55655    -1.53034
O     -1.62723    -0.69744    -0.54631
H     -1.55206    -1.67550    -0.55354
O      1.33729    -4.05112     1.06713
H      0.47625    -4.49635     1.11650
O      1.37274    -3.81056    -0.34506
H      1.78796    -2.92533    -0.38227
O     -1.24292    -3.44815    -0.64639
H     -0.28855    -3.58299    -0.80104
O     -1.34842    -4.12643     0.61580
H     -1.42089    -3.36004     1.21586
