 36
-1364.974985143735
O      1.66044     2.55626     0.20141
H      1.88433     2.50303    -0.73776
O      1.68945     1.17990     0.56533
H      0.72940     0.94079     0.61884
O      0.43706    -2.85117     1.70631
H     -0.23295    -3.12057     1.06218
O     -0.22786    -1.72337     2.28407
H      0.49428    -1.29545     2.80075
O      2.32809    -2.10336    -0.09890
H      1.70834    -2.35783     0.60743
O      1.51575    -1.25879    -0.91616
H      1.91814    -0.38874    -0.75547
O     -1.22825    -2.78915    -1.75287
H     -1.76261    -2.14548    -2.25266
O     -0.97443    -2.00296    -0.59121
H     -0.06529    -1.69125    -0.78622
O      1.03596     1.20496    -2.49853
H      0.25284     1.68956    -2.17783
O      0.39548     0.15681    -3.23525
H      0.80347    -0.62775    -2.83453
O     -1.52533     1.07106     1.79861
H     -1.55155     1.93084     1.34221
O     -0.80280     0.35554     0.78973
H     -0.76233    -0.53908     1.19673
O     -0.97990     2.42948    -1.25697
H     -1.72140     1.78629    -1.22676
O     -0.99930     3.00891     0.04670
H     -0.04395     3.07595     0.21608
O      0.97923     0.92214     3.90319
H      0.10968     0.93549     3.47895
O      1.66282    -0.11623     3.20141
H      2.06566     0.34592     2.44675
O     -2.17495    -0.41792    -2.65654
H     -1.30454    -0.04201    -2.88884
O     -2.51690     0.28499    -1.45973
H     -2.15262    -0.29573    -0.77046
