 32
-1213.3145862062638
O      0.85906    -2.17927     1.08630
H      0.25960    -1.69197     1.69438
O      2.12416    -1.56453     1.32066
H      2.37139    -1.32493     0.40470
O     -0.52985    -2.24881    -1.20226
H      0.06115    -2.23510    -0.41962
O     -0.02330    -1.15145    -1.97241
H     -0.67017    -0.44265    -1.76642
O     -1.70324     0.83669    -1.30680
H     -1.27429     1.67566    -1.53519
O     -2.55917     0.59865    -2.43119
H     -2.95235    -0.23273    -2.11175
O      2.45442    -0.61088    -1.14212
H      1.59968    -0.79505    -1.58930
O      2.47804     0.81295    -1.08326
H      2.64695     0.96777    -0.13920
O      0.50313     2.67984    -1.47881
H      1.23820     2.03801    -1.44649
O      0.50612     3.15747    -0.13835
H      0.87124     4.04066    -0.24149
O     -0.97409     0.52174     2.28873
H     -0.05761     0.63842     2.59970
O     -1.09672    -0.90491     2.37483
H     -1.89243    -1.04439     1.83084
O      2.19061     1.56128     1.52440
H      1.38917     2.04632     1.28309
O      1.72315     0.75280     2.59819
H      1.97638    -0.13466     2.27070
O     -3.08342    -1.52365    -0.79721
H     -2.19210    -1.92678    -0.85933
O     -3.04919    -0.90194     0.48813
H     -2.91492     0.02311     0.23382
