 32
-1213.3119298566119
O      1.99373    -1.22088     0.85570
H      1.34237    -1.40523     0.14906
O      3.12645    -0.70626     0.15582
H      2.85623     0.21882     0.00862
O     -1.10273    -1.97514     0.32675
H     -0.82054    -1.55055     1.16801
O     -0.20597    -1.40309    -0.62575
H     -0.57854    -0.49713    -0.74802
O     -1.15526     1.06064    -1.00136
H     -0.41379     1.43111    -1.52009
O     -2.25696     1.09618    -1.90885
H     -2.85547     0.50832    -1.42458
O     -1.09653     1.94881     1.70891
H     -1.42991     1.92457     0.80039
O      0.27009     2.33072     1.48786
H      0.68366     1.78240     2.17790
O      2.06804     1.66320    -0.49716
H      1.37310     2.00051     0.09547
O      1.36675     1.46480    -1.72344
H      1.77508     0.64015    -2.04880
O      1.76004    -2.12643    -3.01461
H      0.91195    -2.13134    -2.55353
O      2.33558    -0.92339    -2.50476
H      2.97774    -1.23729    -1.84676
O     -0.66424    -0.53176     2.55079
H     -1.17532     0.28304     2.40476
O      0.63158     0.03003     2.77903
H      1.17976    -0.48454     2.15354
O     -3.39465    -0.04142     1.17533
H     -4.19634    -0.37532     1.59155
O     -3.42322    -0.68229    -0.10129
H     -2.68118    -1.31487     0.00592
