 12
-454.965801354666
O     -2.56124     0.45324    -0.14494
H     -2.82020    -0.41911     0.17156
O     -2.66962     1.23505     1.04897
H     -3.38431     1.83513     0.80740
O      2.91810    -0.49377    -0.66559
H      2.00388    -0.29396    -0.91085
O      3.06241     0.32547     0.50345
H      3.71445     0.96889     0.20764
O      0.03497    -0.55731    -0.93723
H     -0.65665     0.05635    -0.65026
O     -0.21150    -1.67259    -0.07338
H      0.53878    -1.62599     0.52883
