 32
-1213.3142487006924
O      1.77608    -1.74167     2.84496
H      1.89089    -1.94989     3.77650
O      1.91715    -0.32650     2.82048
H      0.98130    -0.05587     2.70973
O     -0.20177    -0.81333    -2.22304
H     -0.79803    -0.14666    -2.61474
O     -1.13787    -1.80591    -1.78130
H     -0.53937    -2.40668    -1.29465
O     -3.25133     0.51691    -0.12735
H     -3.05880     1.18517    -0.79945
O     -1.95539    -0.05655     0.02174
H     -1.89519    -0.77939    -0.65055
O     -1.65452     1.24886    -3.12959
H     -1.41235     1.83450    -3.85279
O     -1.69226     2.13822    -2.01446
H     -0.85938     1.90170    -1.54015
O      1.48100     2.47801    -0.68092
H      2.19097     1.86462    -0.42071
O      0.38711     1.58376    -0.47994
H      0.12046     1.76760     0.44799
O      2.18031    -0.73658    -0.48517
H      1.38529    -0.30722    -0.85408
O      2.75336     0.32705     0.26717
H      2.52589     0.09179     1.18337
O     -0.00990    -2.21014     0.88567
H      0.65102    -2.15419     1.60043
O      0.69524    -2.93545    -0.12900
H      1.42381    -2.31437    -0.32854
O     -0.57286     0.42529     2.17282
H     -1.04366     0.06855     1.37314
O     -0.66366     1.82997     1.95691
H     -1.61066     1.98554     2.03059
