 24
-909.975138392315
O     -0.61065    -2.26360    -0.36584
H     -0.04188    -1.64217    -0.84898
O     -1.08832    -1.43718     0.69749
H     -0.50912    -1.66494     1.44187
O     -1.64867     1.63209    -0.39341
H     -1.10052     1.68783    -1.20180
O     -2.35353     0.42006    -0.69531
H     -1.89766    -0.22028    -0.11143
O      1.56978    -0.34964    -1.01156
H      1.32741     0.32880    -0.35208
O      2.13737     0.45359    -2.04456
H      2.69557    -0.19227    -2.48737
O     -1.09161    -0.16853    -3.02113
H     -1.79857    -0.16607    -2.35472
O     -0.43009     1.05153    -2.65059
H      0.49508     0.76601    -2.59690
O      0.36846    -1.16158     3.24249
H      0.00814    -0.26822     3.14009
O      1.74494    -0.90729     2.93406
H      2.16556    -1.09491     3.77908
O      1.14073     1.26631     1.08571
H      1.67877     0.76973     1.71986
O     -0.12993     1.22537     1.75897
H     -0.74512     1.44356     1.02248
