 32
-1213.3127450295844
O      2.71694    -2.34869    -0.96439
H      2.26389    -1.87625    -0.25360
O      2.00117    -1.92240    -2.11861
H      1.11489    -2.28495    -1.95439
O     -1.22259     1.94415     3.10349
H     -1.60079     1.26018     2.52783
O     -0.03521     1.30144     3.54267
H     -0.23188     1.07988     4.46010
O     -1.99021     1.11472    -1.32329
H     -2.02347     0.64928    -0.46354
O     -1.36125     0.12968    -2.14387
H     -0.45039     0.48275    -2.22356
O      1.07798     1.15299    -2.24195
H      1.06743     2.07313    -1.93994
O      2.03086     0.58941    -1.33513
H      2.28814    -0.23147    -1.81326
O      0.24732     2.33289     0.61847
H     -0.04252     2.91671     1.33661
O     -0.19484     3.02298    -0.56372
H     -0.92666     2.44519    -0.85542
O      1.66988    -0.20443     2.04338
H      1.00835     0.35959     2.48127
O      0.98877    -0.56367     0.84550
H      1.34333     0.07792     0.18570
O     -1.66862    -2.25421    -1.02663
H     -1.58038    -1.41174    -1.52472
O     -0.31862    -2.70271    -0.98438
H     -0.07959    -2.56884    -0.05852
O     -2.13311    -1.36057     1.44530
H     -2.22421    -1.82003     0.59022
O     -1.59767    -0.13246     0.97543
H     -0.62778    -0.31813     0.94563
