 32
-1213.3108965397946
O      1.27457    -2.45462     0.66149
H      1.97853    -1.81111     0.44720
O      0.39387    -1.56533     1.36423
H     -0.15672    -2.18113     1.86574
O     -0.78280    -0.84927    -0.84459
H     -0.20154    -1.04011    -0.08071
O      0.11142    -0.30976    -1.81734
H      0.05195     0.65313    -1.64047
O     -2.19804    -0.78581     2.94064
H     -2.56697    -0.79180     3.83022
O     -2.14889    -2.16588     2.59414
H     -2.75231    -2.17714     1.83424
O     -2.33409     1.69249     1.08818
H     -2.79996     0.93965     0.69806
O     -1.08339     1.10111     1.41656
H     -1.34669     0.41503     2.06042
O      2.71365    -0.29910     0.00894
H      2.19304     0.52496     0.09645
O      2.76860    -0.46313    -1.40931
H      1.82309    -0.58242    -1.63094
O      2.79433     2.50436    -2.75689
H      3.23444     3.26866    -3.13943
O      3.84924     1.94004    -1.96281
H      3.49676     1.03680    -1.82948
O      1.07865     1.81377     0.05683
H      0.23086     1.60396     0.50687
O      0.61488     2.23512    -1.22332
H      1.45932     2.39747    -1.69062
O     -3.20486    -1.80178    -0.10975
H     -2.33465    -1.49031    -0.44054
O     -3.93133    -0.58095    -0.00039
H     -4.33962    -0.49911    -0.86766
