 24
-909.9714598241343
O     -2.58025     1.25271     0.26402
H     -2.27720     1.46655    -0.63600
O     -3.66639     0.36517    -0.02143
H     -4.41068     0.85681     0.34149
O      0.26469    -2.23873     0.37423
H      0.00489    -1.45959     0.90881
O      0.52922    -1.64965    -0.90432
H     -0.32537    -1.69635    -1.36134
O      1.11729     0.91173    -0.73639
H      1.04544    -0.06902    -0.71658
O      2.45782     1.08277    -1.17812
H      2.93922     0.73582    -0.41082
O     -1.44559     0.92184    -2.21616
H     -0.49250     0.93299    -2.04300
O     -1.70148    -0.48281    -2.35967
H     -2.52053    -0.56888    -1.85508
O      2.84442    -0.07420     1.55868
H      2.10910     0.23031     2.11526
O      2.94448    -1.46419     1.88662
H      2.41304    -1.87826     1.19034
O      0.16595     1.14224     1.98781
H      0.47259     1.44344     1.11800
O     -0.58919    -0.01275     1.61453
H     -1.36512     0.37871     1.16285
