 36
-1364.9748945567103
O      3.18895    -1.37214    -1.35576
H      2.61020    -2.11445    -1.63140
O      3.23984    -0.57666    -2.53766
H      2.62932     0.13363    -2.30552
O     -0.91583    -1.11664     0.74368
H     -1.21211    -1.62455    -0.03258
O     -2.13464    -0.49261     1.16337
H     -1.94912    -0.37666     2.10681
O      1.29212    -3.23070    -1.65492
H      0.50315    -3.00054    -2.17076
O      0.75259    -3.44894    -0.35070
H      1.20116    -2.77180     0.17367
O     -0.71378    -1.33383    -2.58184
H     -0.18679    -0.72368    -2.02581
O     -1.82887    -1.66301    -1.75153
H     -2.40369    -0.89084    -1.85047
O      0.77353     0.41103    -1.23243
H      1.05305     0.30487    -0.28457
O      0.20895     1.72063    -1.26889
H     -0.75267     1.50153    -1.34518
O     -2.29155     1.07579    -0.92343
H     -2.28376     0.56939    -0.07349
O     -2.90454     2.30986    -0.56554
H     -2.23768     2.68766     0.03381
O     -0.43037     0.68658     3.12235
H     -0.43076     1.52296     2.62639
O     -1.04040     1.07272     4.35193
H     -0.31109     0.92811     4.96115
O      0.09621     2.73056     1.19726
H      0.19958     2.40654     0.27142
O     -1.11695     3.47521     1.12201
H     -0.79821     4.37046     0.96816
O      2.21251    -1.19857     1.13142
H      2.77612    -1.12009     0.33595
O      1.66574     0.11628     1.19209
H      1.09310     0.04477     1.97636
