 40
-1516.6412149823893
O      2.22232     3.89711    -0.08344
H      2.19698     3.71184    -1.03191
O      2.62394     2.62590     0.42643
H      1.93712     2.43234     1.09758
O     -1.44252    -1.45191    -1.09013
H     -0.97595    -2.22056    -0.70505
O     -0.45586    -0.91319    -1.95515
H     -0.63773     0.03939    -1.91016
O     -2.37185     0.69053     0.66035
H     -2.75235     1.08012    -0.15305
O     -3.05545    -0.55785     0.77512
H     -2.68399    -1.02906     0.00466
O      0.29706     0.80373     0.63578
H     -0.67089     0.71129     0.76929
O      0.73336     1.39951     1.86439
H      1.08538     0.58938     2.28901
O     -3.04159     1.73663    -1.73289
H     -3.90333     1.89170    -2.13433
O     -2.48660     3.05187    -1.65963
H     -1.64934     2.90189    -2.12328
O      0.16765     2.00855    -1.96962
H      0.30672     2.03414    -1.00591
O      1.45165     2.35614    -2.47214
H      1.93874     1.52477    -2.29696
O      2.95882     0.06833    -0.34241
H      2.92564     1.02566    -0.15253
O      2.38211    -0.00728    -1.64309
H      1.56482    -0.50006    -1.47585
O      1.20029    -1.12643     2.37158
H      0.27512    -1.45773     2.39439
O      1.70306    -1.72874     1.18367
H      2.18518    -0.99325     0.74585
O      0.35370    -3.98042     0.91116
H      0.98839    -3.25742     1.11117
O     -0.02322    -3.58607    -0.40138
H      0.40142    -4.24402    -0.96081
O     -1.34751    -1.88894     2.43969
H     -2.09464    -1.39269     2.04880
O     -1.82664    -3.23545     2.41872
H     -1.10020    -3.65886     1.93831
