 32
-1213.3095153173538
O      2.47944     2.36310     1.37135
H      2.92134     2.99056     1.95130
O      2.30612     3.11823     0.17282
H      1.33862     3.05117     0.06663
O     -1.93239    -3.28252    -1.51263
H     -2.50979    -2.51402    -1.65163
O     -0.93110    -2.69783    -0.67214
H     -0.34425    -2.24724    -1.30624
O     -2.35647     0.02162    -2.54290
H     -3.03094     0.48163    -3.05063
O     -3.13655    -0.84955    -1.73124
H     -2.93052    -0.48948    -0.83891
O     -0.28588     2.38568    -0.22260
H     -0.18018     1.47462    -0.56545
O     -0.86960     2.15549     1.05974
H     -0.11966     1.80554     1.56961
O      3.37233    -0.16588     0.87821
H      3.03309     0.74352     0.97142
O      2.71620    -0.59620    -0.31013
H      3.44877    -0.79198    -0.90475
O      0.19934    -0.12407    -0.94900
H      1.08530    -0.35841    -0.59816
O      0.20234    -0.78535    -2.21318
H     -0.67099    -0.50030    -2.52441
O      0.71846     0.00148     2.14618
H     -0.13492    -0.42813     1.92451
O      1.39335    -1.07834     2.80291
H      2.15213    -1.18317     2.21885
O     -1.58713    -1.01740     1.31222
H     -1.42931    -1.66115     0.58568
O     -2.38314    -0.01604     0.66468
H     -1.87689     0.80731     0.84018
