 24
-909.9770801885777
O     -1.45206    -1.26954    -0.12614
H     -1.10117    -0.56489    -0.71197
O     -1.27102    -0.70056     1.17148
H     -0.30500    -0.64307     1.25171
O      0.59950    -2.96260    -0.34777
H     -0.26887    -2.53011    -0.23042
O      0.70981    -2.87735    -1.77321
H      1.30807    -3.60525    -1.95655
O      2.72203     0.54744     1.48006
H      3.02914     0.23358     2.33456
O      1.75325    -0.45042     1.16914
H      1.72449    -0.36259     0.19309
O     -2.83720     1.42394    -0.84119
H     -3.79607     1.45069    -0.75669
O     -2.42111     1.69651     0.49815
H     -2.12469     0.81491     0.80127
O      0.04601     0.42232    -1.54990
H      0.23323     1.20796    -0.99037
O      1.27770    -0.30559    -1.43175
H      1.01097    -1.20236    -1.72305
O      0.48532     2.08966     1.46489
H      1.38976     1.74857     1.41550
O      0.27184     2.50615     0.10600
H     -0.67244     2.71874     0.15374
