 32
-1213.3124163070959
O      2.88867    -1.11466     3.02230
H      3.07795    -1.65665     3.79268
O      1.48068    -0.95469     3.14352
H      1.15269    -1.41842     2.34521
O     -1.82945    -0.91017    -0.61297
H     -1.59666    -0.04091    -1.01102
O     -2.34765    -1.61397    -1.72961
H     -1.52433    -1.99866    -2.06765
O      0.28975    -2.10743    -2.24921
H      0.70651    -1.63983    -1.49285
O      0.61410    -1.23981    -3.33113
H      1.08274    -1.83399    -3.92528
O      0.30740    -1.59927     0.79296
H     -0.60218    -1.44682     0.45096
O      1.07145    -0.78952    -0.11172
H      1.05488     0.07290     0.35976
O      1.37289     1.81476    -1.78750
H      1.88480     1.87792    -0.97188
O      2.14389     0.88306    -2.54787
H      1.47377     0.21214    -2.75348
O     -1.25475     2.38104    -0.21270
H     -1.98286     1.96701     0.30449
O     -1.21809     1.52612    -1.36663
H     -0.28939     1.66498    -1.65505
O      0.88756     1.57729     1.11968
H      0.14160     2.01500     0.65565
O      0.28911     1.41041     2.41052
H      0.84581     0.70228     2.78657
O     -2.09001     0.16710     2.19234
H     -1.29243     0.72551     2.24482
O     -2.91130     0.89869     1.27036
H     -3.14328     0.18406     0.66318
