 20
-758.3030483265363
O     -1.08328    -0.66580     2.47056
H     -0.84680    -1.26415     3.18349
O     -1.42355    -1.58753     1.43426
H     -0.63878    -1.52953     0.85096
O      0.63102    -1.07227    -0.25830
H      1.13401    -0.48384     0.34766
O     -0.08388    -0.09538    -1.02926
H     -0.87945    -0.59951    -1.30153
O      1.41928     0.53128     1.66985
H      0.52599     0.48900     2.04060
O      1.50706     1.91563     1.32511
H      1.65865     1.87291     0.36586
O      2.23930     0.93331    -1.88615
H      1.34803     0.58315    -1.70767
O      2.07103     2.24591    -1.33102
H      2.92149     2.64240    -1.53798
O     -2.34231    -1.40503    -1.53868
H     -2.92775    -1.48111    -2.29800
O     -3.04663    -0.46992    -0.71938
H     -2.77983    -0.80255     0.14927
