 36
-1364.976994742456
O      0.91361     0.06468     1.82934
H      0.09643     0.02839     1.28331
O      0.80979     1.36916     2.37846
H      1.13506     1.89521     1.62263
O     -1.78583    -1.53623     0.29000
H     -1.34665    -1.99520     1.04444
O     -1.33908    -0.19727     0.54424
H     -1.46203     0.24203    -0.33015
O      2.61843    -1.25526     0.26302
H      2.13271    -0.80238     0.97668
O      1.61274    -2.16669    -0.20266
H      1.32468    -1.72662    -1.02945
O      2.36605     0.60124    -1.63722
H      2.87951     0.05242    -1.01550
O      1.54214    -0.44050    -2.17004
H      0.79490     0.05003    -2.56127
O     -0.48993    -2.67018    -2.38032
H     -0.77435    -3.54774    -2.65398
O     -1.72245    -1.95012    -2.34996
H     -1.85277    -1.86967    -1.38095
O     -1.64478     2.65978     1.76370
H     -1.02913     2.13358     2.30053
O     -1.54142     3.93611     2.39929
H     -2.43734     4.05385     2.72953
O      1.23671     2.41651    -0.00693
H      1.53407     1.78195    -0.68877
O      0.08541     3.01774    -0.59980
H     -0.46987     3.16896     0.18123
O     -1.45583     1.16572    -1.75908
H     -0.85110     1.91316    -1.57762
O     -0.84541     0.57122    -2.90560
H     -1.31860    -0.28178    -2.92717
O     -0.46746    -2.38661     2.41528
H      0.02906    -1.66706     2.82884
O      0.56043    -3.29497     2.00416
H      0.87771    -2.88752     1.17268
