 32
-1213.3148266201845
O      1.08567    -2.17286     1.35425
H      1.93664    -1.74816     1.57048
O      0.22072    -1.09750     1.76065
H     -0.54682    -1.24988     1.17123
O     -1.79634    -2.62240    -2.44092
H     -1.64851    -3.49078    -2.82900
O     -0.86589    -1.79789    -3.13822
H     -0.08712    -1.86153    -2.53746
O     -2.73601    -0.63882     0.02023
H     -2.47537    -0.15811    -0.79188
O     -1.73727    -1.67040     0.06895
H     -1.78402    -2.06727    -0.82497
O     -1.69476     0.64336    -2.10954
H     -1.42501    -0.05139    -2.73167
O     -0.41582     1.05579    -1.61249
H     -0.60840     1.25310    -0.66432
O      0.61366     3.76170     1.79564
H      0.60363     4.72109     1.74038
O      1.68030     3.41925     0.91165
H      2.04909     2.66714     1.39721
O      1.69241    -0.59005    -1.33970
H      0.92486     0.00796    -1.45569
O      1.05340    -1.87090    -1.32073
H      1.02434    -2.07090    -0.35640
O      2.89467    -0.20861     1.40556
H      2.71932    -0.06297     0.46473
O      2.07626     0.79019     2.02170
H      1.20804     0.33701     2.07299
O     -0.59641     1.57330     0.95528
H     -0.31136     2.44359     1.31001
O     -1.75185     1.28512     1.75063
H     -2.13982     0.56849     1.21579
