 24
-909.9726446215664
O     -1.88569    -1.43210     0.83379
H     -1.93437    -0.51607     0.47229
O     -2.60942    -2.14670    -0.16164
H     -2.88828    -2.91885     0.33743
O     -0.17263    -2.20442    -1.35248
H     -1.11299    -2.13537    -1.12560
O      0.05242    -0.93028    -1.97271
H      0.84059    -0.64612    -1.48511
O      2.22229    -0.51305    -0.41552
H      1.85458    -0.84625     0.42805
O      2.76754     0.73624    -0.00525
H      3.63155     0.70961    -0.42727
O     -1.59901     1.00246    -0.14090
H     -0.76450     1.51568    -0.13312
O     -1.87913     0.87859    -1.53905
H     -1.24663     0.17775    -1.79420
O      0.31855     0.29371     2.09923
H      1.17380     0.68499     2.30584
O      0.69711    -1.03191     1.70108
H     -0.17022    -1.36937     1.42397
O      0.68554     2.43709    -0.11863
H      1.48467     1.88464    -0.09655
O      0.85481     3.20587     1.07061
H      0.02584     3.69199     1.07992
