 32
-1213.3077086482674
O      4.29398    -0.40102     0.37677
H      3.76438    -0.50598    -0.42913
O      4.13312     0.99883     0.60842
H      5.01522     1.33568     0.42089
O     -0.36091    -0.63313    -2.29710
H     -1.27544    -0.28500    -2.28497
O     -0.32061    -1.23540    -1.00485
H     -0.49106    -0.47653    -0.41066
O     -3.29878     2.53892     0.34470
H     -2.35920     2.53577     0.60005
O     -3.62423     1.16564     0.60423
H     -4.48059     1.22777     1.03906
O     -0.56747     1.57494    -0.51083
H      0.38406     1.70577    -0.70790
O     -0.67539     2.04122     0.83997
H     -0.68263     1.18642     1.31097
O      2.01706     1.49681    -1.08118
H      2.65204     1.50828    -0.34625
O      2.17065     0.12997    -1.51300
H      1.30411    -0.05745    -1.92140
O      1.91272    -1.50672     1.59518
H      2.81338    -1.15437     1.54507
O      1.90562    -2.46227     0.52793
H      1.14584    -2.14948     0.01067
O     -1.38692    -1.57193     1.90866
H     -2.08900    -1.34877     1.28073
O     -0.52589    -0.44801     1.74382
H      0.36145    -0.86473     1.81315
O     -2.87799    -0.37475    -1.44760
H     -3.13181     0.29685    -0.78652
O     -3.03112    -1.58850    -0.69844
H     -2.20469    -2.03261    -0.92951
