 32
-1213.3147534155787
O      3.53989     0.34046     0.88700
H      3.99491     1.17236     1.04193
O      2.18111     0.77865     0.95381
H      1.78399     0.08972     1.53091
O     -1.19076    -2.17285    -0.25452
H     -0.53950    -2.45537     0.41454
O     -0.30634    -1.44832    -1.11361
H     -0.73273    -0.57460    -1.18692
O     -1.15040     1.07485    -1.41130
H     -0.33212     1.51138    -1.69803
O     -1.44764     1.75942    -0.19273
H     -2.38302     1.99711    -0.35035
O     -1.53619     0.04368     1.84476
H     -1.38617     0.75907     1.19554
O     -2.69363    -0.56999     1.26486
H     -2.27102    -1.15843     0.60422
O      1.74325     1.88394    -1.58326
H      1.79396     1.48116    -0.70321
O      1.52441     0.75549    -2.42832
H      2.30672     0.19893    -2.24607
O      2.57591    -2.06334    -0.98840
H      1.70667    -1.86460    -1.36732
O      3.36750    -0.98386    -1.47621
H      3.62740    -0.56430    -0.63937
O      0.80616    -1.16403     2.21610
H     -0.12433    -0.86118     2.10993
O      0.83883    -2.36518     1.44503
H      1.59209    -2.21329     0.85454
O     -4.09748     1.92769     1.06387
H     -3.92032     0.98125     1.16057
O     -4.10231     2.01596    -0.36013
H     -4.85665     2.58975    -0.52188
