 40
-1516.6397955774262
O      1.18053     0.99923     1.67375
H      1.17014     0.08705     1.31372
O      1.76386     1.72181     0.58369
H      1.03885     2.32339     0.32940
O     -0.70304     1.51314    -2.99266
H     -1.09639     2.01895    -2.26215
O     -0.36490     0.33627    -2.25727
H      0.60567     0.44644    -2.10946
O     -1.99227    -0.47412    -0.34674
H     -1.40184    -0.19172    -1.08804
O     -1.63046     0.44059     0.69034
H     -1.27666    -0.18533     1.36763
O     -0.77712    -1.09883     2.63246
H      0.09770    -1.45255     2.86196
O     -1.19970    -0.43220     3.82526
H     -1.06229     0.49681     3.57838
O     -0.17107     3.34735    -0.29972
H     -0.09064     4.00470    -0.99626
O     -1.37400     2.68449    -0.67676
H     -1.39953     1.92229    -0.05603
O      2.89966    -0.72728    -1.67181
H      2.26576    -1.28822    -2.16162
O      2.24679     0.54124    -1.78483
H      2.34187     0.90064    -0.88082
O      0.93153    -2.31748    -2.47682
H      0.25098    -2.73641    -1.91583
O      0.25830    -2.16126    -3.72261
H     -0.06342    -1.25183    -3.64741
O      1.35139    -2.62267     1.39338
H      0.52596    -2.98060     1.04018
O      1.43766    -1.42702     0.63012
H      2.17274    -1.56593     0.00526
O     -1.40608    -3.00588     0.27148
H     -1.74345    -2.10116     0.07914
O     -1.02932    -3.44200    -1.03058
H     -1.73058    -4.05307    -1.27576
O     -0.75442     3.69599     2.62183
H     -1.59282     3.71338     2.15282
O     -0.70019     2.33153     3.02035
H      0.11248     2.02722     2.56905
