 24
-909.9694823075521
O      0.07959    -2.37156     1.09151
H     -0.61882    -2.99002     1.32842
O      0.32452    -2.69449    -0.28627
H     -0.43052    -2.23780    -0.71266
O      0.66787     0.66166     1.12791
H      1.50679     0.19527     1.25852
O      0.92300     1.96733     1.67226
H      0.01176     2.22936     1.85107
O      2.76031    -1.03459     0.13972
H      2.05345    -1.63521    -0.15002
O      2.88703    -0.18198    -0.99712
H      3.71032    -0.48643    -1.39391
O     -1.84651     2.85967     0.01281
H     -2.53543     3.52597     0.10356
O     -1.94938     2.16923     1.26105
H     -2.17266     1.27391     0.95841
O     -1.85866    -1.16312    -0.72822
H     -1.47065    -0.40757    -1.22517
O     -1.99993    -0.63414     0.59648
H     -1.08674    -0.68988     0.92445
O     -0.30312     0.75370    -1.76976
H      0.11805     0.99955    -0.92717
O      0.53685    -0.26667    -2.30198
H      1.38820    -0.13199    -1.84047
