 16
-606.6407180663529
O     -0.88270    -1.22000     1.16449
H     -1.24519    -1.60689     0.35821
O     -1.10879     0.17805     0.91115
H     -0.33078     0.57825     1.35295
O      1.33092     1.90678     0.71194
H      1.58881     1.16643     0.12592
O      1.11384     1.18576     1.92642
H      1.41854     1.81928     2.58250
O      1.69833    -0.10121    -1.01986
H      0.89535    -0.18478    -1.55854
O      1.73097    -1.33865    -0.30246
H      1.10125    -1.17301     0.41511
O     -1.09309     0.23766    -1.77304
H     -1.19797     0.38548    -0.81110
O     -1.81155    -0.99774    -1.91358
H     -2.48273    -0.74848    -2.55521
