 24
-909.9723772336596
O     -1.13204    -0.35663     1.53897
H     -0.53925     0.34982     1.22485
O     -2.30051    -0.15474     0.73215
H     -2.32487    -0.97617     0.21587
O     -0.46798    -1.52998    -1.78721
H     -0.12169    -1.69757    -0.89895
O     -1.88690    -1.64023    -1.59736
H     -2.15966    -0.80811    -2.01666
O      2.45421     0.30606     2.55288
H      2.42628    -0.33969     1.82677
O      2.88530     1.45290     1.81159
H      3.27993     1.98848     2.50545
O      0.58182     1.47553     0.51208
H      1.44611     1.59464     0.95978
O      1.00332     1.06878    -0.79966
H      0.19421     1.23996    -1.30904
O      1.18927    -2.10188     0.28305
H      1.69467    -2.87440     0.01458
O      2.18170    -1.08375     0.20951
H      1.72305    -0.39845    -0.32035
O     -2.50651     0.91691    -2.27823
H     -3.38068     1.31930    -2.25482
O     -1.83195     1.59780    -1.21914
H     -2.03005     1.01513    -0.44979
