 36
-1364.975991486566
O      0.84859     1.93731     0.56794
H      1.71389     1.56564     0.80966
O      0.10428     1.83526     1.78178
H      0.23658     0.90342     2.03210
O      0.05561    -1.72496    -1.36285
H     -0.40957    -1.55706    -2.19943
O     -0.99170    -2.01140    -0.44742
H     -1.24840    -1.12922    -0.12380
O     -2.21801    -0.54573     1.76017
H     -2.61235     0.29896     2.01930
O     -1.12128    -0.59340     2.68438
H     -0.87362    -1.52475     2.60711
O      1.74850    -0.37274     1.73752
H      1.78052    -1.33987     1.62058
O      3.02253     0.07247     1.26715
H      2.96844    -0.16013     0.31426
O     -2.50330     2.34197     1.79874
H     -1.52787     2.27046     1.69668
O     -2.91920     2.54370     0.45346
H     -3.03019     3.49719     0.39516
O     -0.68418     1.52338    -1.59796
H     -0.05257     1.63578    -0.85022
O     -1.69075     0.68757    -1.02340
H     -2.18974     1.35447    -0.51381
O      2.44055    -0.53756    -1.26359
H      1.53236    -0.89401    -1.19677
O      2.22190     0.72973    -1.88633
H      1.83047     0.45669    -2.73736
O     -0.48188    -0.08211    -3.64988
H     -0.53682     0.59022    -2.93222
O      0.85067     0.09822    -4.11155
H      0.73241     0.68563    -4.86333
O      1.38343    -3.04215     1.56443
H      1.71510    -3.77921     2.08338
O     -0.02294    -3.14840     1.77937
H     -0.34737    -2.93128     0.88363
