 40
-1516.638686851045
O      0.04218     1.78320    -2.31584
H     -0.26081     0.85708    -2.44980
O      0.27132     2.21366    -3.65666
H     -0.27981     2.99923    -3.65727
O      2.24362    -1.26611     2.82604
H      2.42901    -0.87048     1.94220
O      2.09459    -2.65073     2.50263
H      2.88437    -2.83924     1.98392
O      1.68387     2.87231     0.21459
H      1.61393     2.30404     0.99716
O      2.17862     1.95017    -0.76093
H      1.42577     1.91258    -1.39576
O     -2.89300    -1.84483    -1.34863
H     -2.95516    -0.87690    -1.31158
O     -3.70739    -2.25851    -0.25077
H     -3.04246    -2.59360     0.36673
O      2.56976    -1.34338    -0.61378
H      1.62972    -1.27145    -0.85085
O      2.69638    -0.36284     0.40362
H      2.66377     0.48625    -0.09723
O     -2.04752     0.78716    -0.49339
H     -1.76779     1.73172    -0.44188
O     -0.77208     0.16303    -0.22829
H     -1.03158    -0.71217     0.10255
O     -0.98556     3.17871    -0.05497
H     -0.01489     3.28057    -0.08833
O     -1.28005     3.34244     1.32816
H     -1.06177     2.47167     1.68916
O     -0.07334    -1.89472    -2.06353
H     -0.94789    -2.20209    -1.76354
O     -0.45899    -0.76174    -2.83384
H     -0.31663    -1.05648    -3.74210
O      0.43139     0.84432     1.99270
H      0.04212     0.50507     1.15010
O     -0.13666    -0.03129     2.97016
H      0.67521    -0.49191     3.25571
O     -0.13860    -2.43117     0.93807
H      0.59072    -2.55750     1.58145
O     -1.28174    -2.17208     1.76308
H     -1.01066    -1.36430     2.24773
