 40
-1516.6454893669709
O      0.33383     2.50033     2.18121
H     -0.35163     2.94808     1.63104
O     -0.46666     1.60522     2.95336
H     -0.70643     0.94876     2.28352
O      1.50530    -1.51318    -0.68463
H      1.04488    -2.31979    -0.37197
O      1.12769    -1.44754    -2.06130
H      1.26117    -0.49176    -2.19557
O     -1.43754     1.51986    -2.67101
H     -1.77962     2.31828    -2.23573
O     -2.60412     0.68850    -2.70570
H     -2.22143    -0.15843    -2.97907
O     -1.93378     0.40073     0.05372
H     -2.22942    -0.24855    -0.62201
O     -0.78263    -0.28452     0.55988
H     -0.10670    -0.13521    -0.13374
O     -1.18334     3.54857    -0.73242
H     -0.25234     3.26396    -0.68741
O     -1.66195     3.03695     0.51131
H     -1.89372     2.11690     0.28163
O      0.90612     1.10914    -1.55822
H      0.03117     1.31696    -1.95450
O      1.14568     2.24461    -0.72224
H      1.74411     1.85504    -0.04625
O      2.15686     0.58255     2.17075
H      1.58463     1.37747     2.27988
O      2.68060     0.78068     0.85617
H      2.60709    -0.10771     0.47466
O      0.14995    -3.47184     0.51749
H      0.62687    -3.43193     1.36316
O     -1.12592    -2.91649     0.86018
H     -0.93517    -1.95941     0.90962
O      1.70965    -2.07672     2.43627
H      1.83679    -1.10206     2.45439
O      2.95916    -2.50189     1.88969
H      3.36463    -2.90643     2.66340
O     -2.13989    -1.74882    -1.41571
H     -1.85083    -2.55017    -0.94426
O     -1.49205    -1.79313    -2.68874
H     -0.54487    -1.74376    -2.45763
