 20
-758.311453479435
O      0.46375    -2.86317     1.01552
H      0.37980    -3.70095     1.48071
O      0.96077    -2.00326     2.03991
H      0.21869    -1.38394     2.13129
O      2.12803     0.17995     0.53417
H      2.08088    -0.70115     0.93297
O      2.32907    -0.10630    -0.85352
H      1.41378    -0.09597    -1.19044
O     -0.13388     1.42533     1.03735
H      0.75622     1.06556     0.82903
O     -0.82842     0.22127     1.40353
H     -1.01751    -0.15711     0.52395
O     -0.91929    -1.09502    -0.91720
H     -0.24244    -1.72244    -0.62619
O     -0.17772    -0.29958    -1.84666
H     -0.62916     0.56181    -1.75897
O     -1.17252     2.17791    -1.33835
H     -0.94837     2.16191    -0.38464
O     -2.58364     2.37054    -1.31837
H     -2.65534     3.21226    -1.77647
