 36
-1364.9733266478258
O      1.34783     1.39067     0.22260
H      2.12769     1.75993    -0.22425
O      1.61506     1.63835     1.61169
H      1.95847     0.77297     1.89457
O     -1.72983    -0.16045    -1.15771
H     -0.82821    -0.52928    -1.29156
O     -1.46387     1.23903    -1.07053
H     -1.30906     1.37427    -0.10860
O      1.72628    -1.62037     2.72576
H      2.20497    -2.40614     3.01122
O      2.62056    -1.06242     1.75822
H      2.19587    -1.35491     0.92443
O      3.13918    -0.00328    -2.02971
H      3.75679    -0.22337    -2.73537
O      3.12117     1.42209    -2.05499
H      2.22543     1.56779    -2.42376
O     -1.95173    -2.54336     1.91100
H     -2.73260    -2.24198     1.42411
O     -0.96058    -1.78751     1.22468
H     -0.88868    -0.96854     1.75764
O     -1.07026     1.68269     1.54374
H     -0.13091     1.77958     1.79804
O     -1.49650     0.59048     2.36250
H     -2.42414     0.53008     2.07626
O      0.22209     0.96799    -3.81999
H     -0.01670     1.63535    -4.46897
O      0.54385     1.79157    -2.70527
H     -0.21544     1.61235    -2.09250
O     -3.70144    -0.99723     0.44132
H     -3.02524    -0.65620    -0.18284
O     -3.93100     0.16206     1.23553
H     -4.87511     0.30532     1.11334
O      0.75147    -1.10738    -1.46436
H      1.59521    -0.66758    -1.69363
O      1.14817    -1.92249    -0.36381
H      0.31657    -2.01961     0.14894
