 28
-1061.6365379397266
O      1.43160     0.39575     0.03185
H      1.72336    -0.46865     0.43387
O      2.66052     1.04160    -0.33500
H      2.36470     1.95900    -0.29478
O     -1.32556    -0.62858     0.42996
H     -1.99810    -0.06520     0.00341
O     -0.91349    -1.46838    -0.65940
H     -0.50693    -0.81843    -1.26740
O     -1.13994    -2.92122     2.92755
H     -1.29460    -2.87270     3.87439
O     -0.39935    -1.71847     2.72208
H      0.56077    -2.36650    -0.15868
O     -0.35947     2.18701     0.75088
H      0.25584     1.42559     0.60980
O      0.53256     3.27619     0.48857
H      0.54886     3.71534     1.34383
O     -1.90111     2.01407    -1.43771
H     -1.43237     2.23406    -0.60510
O     -2.84788     1.05763    -0.95359
H     -3.33600     0.85830    -1.75759
O      1.85581    -1.91538     1.15731
H      1.16860    -2.09979     1.82643
O      1.44887    -2.71142     0.03982
H     -0.89143    -1.31736     1.97896
O      1.15196     1.10548    -2.72500
H      1.78372     0.64070    -2.16682
O     -0.02471     0.33206    -2.46147
H     -0.67174     1.03964    -2.29367
