 40
-1516.6446678363693
O      2.57435     2.60723    -0.75754
H      3.36006     3.15947    -0.76731
O      3.03879     1.48538    -0.01191
H      2.33817     1.40774     0.67133
O     -1.56500     0.16706    -2.92916
H     -0.82084     0.78122    -2.82290
O     -2.70310     1.02839    -2.76300
H     -3.17330     0.49671    -2.09483
O      0.70441     1.36352     2.69701
H     -0.24480     1.16414     2.58273
O      1.27679     0.53008     1.68943
H      1.61240    -0.22954     2.19267
O      2.90535    -1.20612    -0.41125
H      3.08694    -0.24819    -0.41170
O      1.64099    -1.22474    -1.08407
H      1.13771    -1.90495    -0.58567
O     -2.17090    -1.71562    -1.16536
H     -1.75549    -1.25759    -1.92287
O     -3.17779    -0.74926    -0.84212
H     -2.87712    -0.47433     0.04896
O     -0.17196    -2.27683     1.58942
H      0.53698    -2.81115     1.98648
O     -0.12144    -2.75957     0.24101
H     -0.99288    -2.47509    -0.10403
O     -2.44975     3.11181    -0.98004
H     -2.66257     2.61230    -1.78178
O     -2.03671     2.04344    -0.13856
H     -1.14501     1.81852    -0.48466
O      0.70798     1.59556    -2.35657
H      1.45736     2.13617    -2.05301
O      0.30417     1.13835    -1.07013
H      0.76767     0.27723    -1.01594
O      2.23578    -3.34478     2.23163
H      2.71632    -3.62533     3.01551
O      2.64782    -1.98385     2.14014
H      2.83420    -1.90329     1.18433
O     -1.92170     0.83929     2.19957
H     -2.09690     1.43275     1.43902
O     -2.14403    -0.41995     1.56802
H     -1.32387    -0.91618     1.74174
