 40
-1516.6452868415786
O      0.24589     0.44072     0.37467
H      0.23565     1.09716    -0.36056
O      1.11899     1.08202     1.31083
H      1.14670     0.37063     1.99320
O      2.87881     2.03515    -1.34138
H      2.88522     1.63821    -2.23032
O      3.05104     0.87623    -0.51778
H      2.46396     1.05484     0.24926
O     -2.00609     0.48067     2.40158
H     -1.96150     1.05080     1.61474
O     -2.97048    -0.48657     1.95193
H     -2.62208    -1.30610     2.35050
O     -0.11943    -0.76253     3.82385
H     -0.70790    -0.17357     3.31044
O      0.93285    -1.01427     2.88673
H      0.61124    -1.84422     2.48512
O      1.24255     0.47244    -3.77353
H      1.43216    -0.25659    -3.14260
O      2.53225     1.08146    -3.84601
H      2.86842     0.76245    -4.69039
O     -1.53034    -1.38753    -1.51680
H     -2.27577    -0.76990    -1.41166
O     -1.22426    -1.66783    -0.15398
H     -0.72706    -0.85724     0.09535
O      0.56834     3.42198    -1.50699
H      1.49089     3.16774    -1.31988
O      0.00110     2.12759    -1.71126
H      0.27720     1.89013    -2.61423
O     -0.68881    -2.98767     2.12449
H     -1.03564    -2.66039     1.27294
O     -1.77681    -2.71506     3.01635
H     -1.27935    -2.24383     3.70690
O      2.18157    -1.25408    -1.91476
H      2.66471    -0.60250    -1.36996
O      1.57021    -2.05384    -0.89844
H      0.63764    -2.03553    -1.15362
O     -2.46967     1.56197    -0.03196
H     -1.98631     1.94001    -0.78056
O     -3.27088     0.54821    -0.65537
H     -3.54136     0.07763     0.14706
