 32
-1213.30882465101
O      0.94060    -2.56305     0.49358
H      1.75436    -2.03328     0.52525
O      0.02983    -1.73139     1.22277
H     -0.49502    -1.32594     0.49633
O      0.26440    -2.43072    -2.15810
H      0.49656    -2.56528    -1.22034
O      0.82521    -1.14791    -2.44199
H      1.77021    -1.28069    -2.24415
O     -2.20389    -1.40096    -1.39443
H     -1.57693    -1.85535    -1.97664
O     -1.27856    -0.52728    -0.74456
H     -1.67027     0.35271    -0.93576
O     -1.91693     2.86692    -0.33295
H     -0.99492     2.60660    -0.14661
O     -2.26439     1.86730    -1.28825
H     -2.45269     2.37388    -2.08562
O      1.31981     1.21837    -0.89639
H      0.67267     0.58958    -1.26998
O      0.58831     1.84833     0.15602
H      0.93693     1.40043     0.97443
O      3.28262    -1.21093    -1.39119
H      4.12009    -0.77339    -1.58034
O      2.93350    -0.69768    -0.10951
H      2.39043     0.09216    -0.35576
O      0.52116     1.03619     3.18963
H     -0.36228     1.02650     2.77517
O      1.31472     0.37238     2.20752
H      0.84357    -0.48001     2.08015
O     -2.75122     1.63954     2.18007
H     -2.78147     2.14302     1.35377
O     -1.74693     0.68408     1.82483
H     -2.21433    -0.16409     1.82108
