 16
-606.6334828274196
O     -2.51121    -0.81651     0.74268
H     -2.65012    -0.63925    -0.20038
O     -1.52264     0.17981     1.02430
H     -1.99975     0.78420     1.60510
O      2.18606     1.07988     1.10842
H      2.30922     0.39891     0.43330
O      2.19546     0.29586     2.30707
H      3.02161     0.57320     2.71554
O      1.54771    -0.54196    -1.16744
H      1.00169     0.16357    -1.54969
O      0.53344    -1.46778    -0.75058
H      0.27329    -1.13100     0.11802
O     -0.86498     0.94591    -1.47102
H     -0.98400     0.84833    -0.51153
O     -1.56519    -0.22368    -1.91703
H     -0.90621    -0.90082    -1.68269
