 20
-758.3116325220246
O     -0.77597    -1.94247     1.46682
H     -1.49963    -1.86496     0.83022
O      0.34651    -1.77247     0.59928
H      0.90194    -1.17518     1.12402
O      2.66440    -0.11048     0.90885
H      3.39906    -0.71132     0.75487
O      2.80999     0.82644    -0.16446
H      2.20624     0.42925    -0.82706
O     -2.38130    -0.80132    -0.79323
H     -1.64832    -0.38314    -1.29476
O     -2.79941     0.30843     0.00854
H     -3.65649     0.52462    -0.37592
O     -0.21032     0.52368    -1.72806
H     -0.03830     1.14707    -0.98883
O      0.87899    -0.39290    -1.60225
H      0.56930    -0.97396    -0.87814
O     -0.26873     1.23141     1.50119
H     -1.11947     0.95172     1.13718
O      0.23025     2.03550     0.42129
H      1.18470     1.96261     0.56490
