 40
-1516.6422994542324
O      0.29378     2.21594    -3.15849
H      0.56842     2.56608    -2.29358
O      1.46874     1.49963    -3.54599
H      1.52126     1.70989    -4.48251
O     -1.13733    -2.06766     0.24566
H     -0.59114    -1.60670     0.90960
O     -0.14188    -2.84605    -0.44220
H     -0.13680    -2.43550    -1.33042
O      1.71815     1.41020     2.41968
H      0.87734     0.89342     2.46990
O      1.18612     2.71298     2.16765
H      1.75374     3.25557     2.71999
O     -0.01775     1.38006    -0.47424
H      0.70641     0.76734    -0.71328
O      0.63277     2.65106    -0.49971
H      0.84335     2.73463     0.44930
O     -1.82060     0.23185    -2.03503
H     -1.31973     0.75692    -1.37623
O     -2.70208    -0.55319    -1.24642
H     -2.09373    -1.16211    -0.76734
O      1.00055    -2.22702     2.09597
H      1.71195    -1.86274     1.54166
O      1.15046    -3.63662     1.94517
H      0.63742    -3.76874     1.13651
O     -2.56340     1.44083     1.17320
H     -2.92380     2.32136     1.31159
O     -3.74304     0.66704     0.93666
H     -3.53810     0.32438     0.04632
O      0.02362    -1.51595    -2.81441
H     -0.73408    -0.88752    -2.72912
O      1.08194    -0.77724    -2.20106
H      1.18853    -0.00987    -2.80247
O      2.63438     0.42374     0.04248
H      2.47461     0.76193     0.94098
O      2.52552    -0.99388     0.24499
H      2.25267    -1.27047    -0.64269
O     -1.02752    -0.65459     3.41928
H     -0.48405    -1.44974     3.31103
O     -0.54875     0.06275     2.28454
H     -1.35479     0.50027     1.92825
