 36
-1364.9718102982092
O      2.38161     2.37125    -1.21372
H      3.10419     2.91618    -1.54169
O      3.03799     1.54384    -0.24207
H      2.41047     0.78890    -0.23602
O     -0.69337    -0.91271    -2.34093
H      0.10448    -0.41969    -2.64270
O     -1.68689     0.11104    -2.43761
H     -1.49427     0.63769    -1.64689
O      0.77218    -1.94862     2.42452
H      0.75758    -1.03690     2.77366
O     -0.61964    -2.24799     2.29315
H     -0.64106    -2.61841     1.39336
O      1.09911    -0.25572    -0.24692
H      0.16160    -0.49250    -0.39995
O      1.71088    -1.52992    -0.08185
H      1.48369    -1.72530     0.85358
O      0.78003     0.71027     2.99677
H      0.49963     1.12798     2.15862
O     -0.20436     1.21287     3.89445
H      0.30157     1.88357     4.36399
O     -2.34002    -0.06662     1.76517
H     -1.78471    -0.62065     2.33860
O     -1.78274    -0.36158     0.48200
H     -2.29529    -1.12509     0.16877
O      1.03065     0.98462    -3.01670
H      1.56179     1.42752    -2.32476
O      0.22110     2.07984    -3.47628
H     -0.65693     1.68049    -3.39584
O     -0.49747     2.04732     0.91250
H     -1.37147     1.67699     1.09734
O     -0.58965     2.31103    -0.49336
H      0.31423     2.61022    -0.66416
O     -0.78512    -3.27829    -0.16036
H     -0.65790    -4.20552    -0.39293
O     -1.97329    -2.91819    -0.86007
H     -1.59088    -2.40247    -1.58996
