 40
-1516.6401225359482
O      2.04313     1.80483    -0.20038
H      2.03203     0.89358    -0.57624
O      3.17612     2.38883    -0.82551
H      2.90311     2.37389    -1.75242
O      1.07452    -0.37498     1.95523
H      0.33578     0.26925     2.09493
O      2.21587     0.36962     2.38392
H      2.18326     1.11501     1.77267
O     -1.08757    -0.64590    -0.20076
H     -0.38952    -0.88268    -0.85898
O     -2.11369    -0.13224    -1.05426
H     -2.70768    -0.90386    -1.03460
O     -2.11421    -1.04493     2.16632
H     -1.71633    -0.73190     1.32209
O     -2.05791    -2.45766     1.97471
H     -1.10250    -2.62648     1.91481
O     -1.40500     1.67468     3.43137
H     -1.98173     0.90367     3.35490
O     -0.70556     1.56517     2.18834
H     -0.81855     2.43104     1.76325
O     -0.91245     2.60661    -1.14096
H     -1.25399     1.78631    -0.74978
O     -0.19703     3.21965    -0.06798
H      0.67958     2.78119    -0.13835
O      0.56996     1.71870    -3.15843
H      0.07480     2.22422    -2.47253
O      1.61741     2.61844    -3.49825
H      1.44181     2.75240    -4.43204
O     -1.85773    -3.41237    -1.00138
H     -2.14447    -4.32816    -0.92527
O     -2.98968    -2.70181    -0.50123
H     -2.77538    -2.64760     0.45947
O      0.53385    -3.27479     0.72984
H     -0.01516    -3.18466    -0.06163
O      1.64632    -2.43897     0.41827
H      1.54479    -1.73477     1.10058
O      2.07699    -0.54787    -1.45523
H      2.14530    -1.34838    -0.89581
O      0.79842    -0.75921    -2.06870
H      0.71421     0.06569    -2.58855
