 16
-606.631935975884
O     -1.33337     0.31298     0.73714
H     -0.97124    -0.30623     1.38960
O     -0.27235     1.28131     0.70579
H     -0.02852     1.27563    -0.23774
O      0.56095    -0.41503     2.81663
H      0.86054     0.36952     2.33897
O      1.68184    -1.28718     2.65957
H      2.03416    -1.30751     3.55581
O     -0.40148     2.12934    -2.66153
H      0.23050     2.50609    -3.28075
O      0.43249     1.19855    -1.96605
H      0.03475     0.35065    -2.22341
O     -1.02754    -1.19782    -1.48842
H     -1.31448    -0.66949    -0.71936
O      0.10512    -1.87368    -0.92112
H     -0.23217    -2.77158    -0.84852
