 28
-1061.6465709396182
O     -2.35658    -2.01914    -0.27644
H     -3.26043    -2.33512    -0.37951
O     -2.23969    -1.87463     1.13771
H     -2.07969    -0.91332     1.20687
O      0.53391    -2.01197     1.57308
H     -0.41078    -2.23767     1.51799
O      1.07791    -2.70610     0.44854
H      1.10493    -2.00727    -0.23742
O      2.33617    -0.09214     1.45738
H      1.71648    -0.83379     1.64703
O      1.46679     1.03131     1.65602
H      2.60840    -0.19680    -0.24141
O      1.92841     2.56596    -0.50102
H      2.30419     1.88835    -1.08265
O      0.60720     2.65985    -1.04967
H      0.06935     2.72578    -0.24972
O     -1.46186     0.12612    -1.58765
H     -1.72474    -0.70030    -1.12719
O     -2.72363     0.59031    -2.05797
H     -2.56345     0.59534    -3.00505
O      1.25910    -0.77252    -1.39241
H      0.59981    -0.05878    -1.39171
O      2.49712    -0.08744    -1.20800
H      1.81224     1.66873     0.99576
O     -1.11198     0.51270     1.28206
H     -0.14669     0.64478     1.44267
O     -1.52993     1.78740     0.79061
H     -1.83169     1.53372    -0.09332
