 20
-758.312559633365
O     -1.72032    -2.41939     1.10925
H     -2.18116    -3.04358     1.67778
O     -0.35429    -2.65939     1.48108
H      0.10444    -2.23944     0.72844
O      0.85466    -1.13660    -0.38143
H      0.31430    -0.53274    -0.92789
O      1.29331    -0.30241     0.68921
H      0.45344     0.05156     1.04304
O     -0.92684     0.52305    -1.61397
H     -1.63903     0.32471    -0.97940
O     -0.59610     1.83732    -1.15382
H      0.37136     1.83247    -1.32155
O      1.97835     1.81564    -1.64192
H      2.53328     1.28237    -2.22012
O      2.67025     1.78246    -0.39358
H      2.24514     1.01245     0.02990
O     -2.11399     0.16580     0.68507
H     -1.87801    -0.74578     0.95122
O     -1.04730     0.92758     1.25985
H     -0.90688     1.55576     0.52591
