 28
-1061.6431983461093
O      1.15365    -2.81566    -0.90072
H      1.49740    -2.67792     0.00603
O      1.59241    -1.59502    -1.50770
H      1.79826    -1.88817    -2.39973
O      0.69312    -1.20531     2.05724
H     -0.02328    -1.55033     1.49065
O      1.83779    -1.89407     1.54149
H      2.37779    -1.13308     1.26375
O      0.65397     1.29063    -0.97948
H      0.19267     1.55650    -0.15838
O     -0.43089     0.91507    -1.82290
H     -0.45264    -2.13614    -0.99487
O     -2.46049     2.35173    -0.87630
H     -1.76027     1.95767    -1.44329
O     -3.60135     1.58280    -1.26485
H     -4.19743     2.28244    -1.54692
O     -1.78328     0.99946     1.36134
H     -2.13291     1.61357     0.68397
O     -0.42632     1.44562     1.45658
H      0.00387     0.67960     1.87000
O     -1.44662    -1.51759     0.47680
H     -1.72236    -0.59477     0.64315
O     -1.19350    -1.50240    -0.93434
H     -0.64294     0.00885    -1.51232
O      2.75282     0.38537     0.42287
H      2.06091     0.62013    -0.23286
O      2.69878     1.50254     1.30455
H      3.54831     1.91713     1.12377
