 32
-1213.3142889411758
O      1.84379    -2.19590     0.65186
H      1.62411    -1.50853    -0.00655
O      2.95272    -1.63430     1.35750
H      3.71234    -1.98269     0.87828
O      0.95973    -0.30840    -1.05745
H      0.56886    -0.74070    -1.86256
O      2.32994    -0.10708    -1.39773
H      2.53551     0.50232    -0.65908
O     -3.30464    -1.16335     0.02431
H     -3.15304    -0.20679    -0.09559
O     -1.95595    -1.62901     0.04255
H     -1.76544    -1.70658     0.99514
O      0.27236     2.90373    -0.12219
H     -0.51322     2.77979     0.44988
O     -0.16844     2.14380    -1.25838
H      0.30935     1.29929    -1.15385
O      2.43018     1.54757     0.70411
H      1.68647     2.16511     0.52189
O      1.94744     0.78456     1.81386
H      2.46478    -0.04010     1.69289
O     -0.47976    -1.36818    -2.96173
H     -0.67728    -1.30872    -3.90007
O     -1.57868    -0.65547    -2.39440
H     -1.75707    -1.19350    -1.59489
O     -0.59285    -0.17748     2.01867
H      0.32115     0.17500     2.03678
O     -0.45852    -1.53842     2.38192
H      0.26725    -1.83963     1.81839
O     -2.57960     1.42988    -0.31801
H     -1.89075     1.62532    -0.97973
O     -1.92532     1.86467     0.87785
H     -1.61235     1.02737     1.26561
