 40
-1516.6454607025169
O      1.10136     2.32524     0.36005
H      0.98633     2.31920     1.34219
O      2.32835     1.60612     0.19576
H      2.07413     0.93931    -0.47591
O      1.43996    -1.46692    -0.22709
H      2.19311    -1.27286     0.37138
O      1.63325    -0.51629    -1.27397
H      0.86647    -0.70959    -1.84978
O     -1.02622     0.33549     0.92572
H     -0.52318    -0.40838     1.32431
O     -2.31167    -0.23971     0.71784
H     -2.42092    -0.05298    -0.22664
O     -0.77327     2.24261     2.75029
H     -1.03414     1.64180     2.02533
O      0.61000     1.91909     2.90209
H      0.56736     1.04640     3.32944
O     -3.39623     0.22496    -2.02006
H     -4.21378     0.73202    -1.99171
O     -2.66612     0.89460    -3.04001
H     -1.92852     1.27577    -2.50889
O     -0.56223     1.65078    -1.63159
H     -0.03175     1.93054    -0.84530
O      0.32939     1.92811    -2.71161
H      0.27133     1.08769    -3.18720
O      3.14592     0.18581     2.25270
H      2.82874     0.81617     1.55673
O      3.48702    -0.94454     1.44860
H      4.43026    -0.82988     1.29947
O     -0.98374    -2.53107    -0.62504
H     -0.10869    -2.27428    -0.28328
O     -1.68727    -2.83133     0.58524
H     -2.13324    -1.97772     0.72193
O      0.27501    -1.47150     2.47490
H     -0.16488    -2.22065     2.89514
O      0.79677    -0.73951     3.57958
H      1.74383    -0.79091     3.38638
O     -0.46099    -1.02415    -2.96085
H     -0.99118    -1.59203    -2.36996
O     -1.11886    -1.15347    -4.21957
H     -1.84015    -0.51861    -4.10002
