 32
-1213.3076797265683
O      1.58223    -0.47651     1.31876
H      1.20190    -0.16574     2.15605
O      2.96011    -0.11981     1.46055
H      3.09059     0.34897     0.62013
O      1.85495    -2.63688    -1.08891
H      2.07202    -2.24406    -0.23272
O      1.14184    -1.58270    -1.72112
H      0.29836    -1.58736    -1.20908
O     -1.07001     0.08084    -2.91301
H     -0.15157    -0.15846    -3.09692
O     -0.98358     1.47876    -2.60603
H     -0.57072     1.44059    -1.71800
O      0.17605     1.11935    -0.23986
H      0.71507     0.42024     0.20234
O     -0.03769     2.01154     0.86321
H     -0.99295     1.85619     0.98543
O      2.86392     0.40090    -1.37244
H      2.30845    -0.37791    -1.59890
O      2.27859     1.42358    -2.18683
H      1.75513     1.90482    -1.53337
O     -2.15160    -0.84477    -0.67673
H     -1.82562    -0.52771    -1.55479
O     -0.98867    -1.54224    -0.20129
H     -1.05136    -1.45553     0.77086
O     -0.70396    -0.19755     3.09455
H     -1.48537     0.35581     2.92593
O     -1.13072    -1.41460     2.48403
H     -1.23493    -2.01346     3.23210
O     -3.22642     0.87020     2.09539
H     -3.96009     1.48842     2.18159
O     -2.64492     1.30728     0.86937
H     -2.62064     0.48279     0.33437
