 36
-1364.973149626448
O      0.99886     2.43724    -0.58098
H      1.79361     2.42165    -1.13658
O      1.48819     2.95506     0.66093
H      1.81066     2.15191     1.11455
O     -0.38712    -2.49591    -1.49996
H      0.26143    -2.58882    -0.76763
O     -1.60107    -2.37611    -0.74487
H     -1.63947    -1.40379    -0.63101
O     -0.46107    -0.02824     2.42764
H     -1.12479     0.66806     2.54476
O     -0.81166    -0.98013     3.43994
H     -0.78372    -1.78780     2.90148
O      2.05234     0.65299     2.04210
H      1.13992     0.41013     2.30586
O      2.50932    -0.60570     1.53592
H      2.44533    -0.45776     0.57244
O     -1.21709     2.33690     1.20102
H     -0.50371     2.95321     0.94627
O     -2.41841     3.09729     1.04624
H     -2.75222     2.72956     0.21505
O     -1.36779     0.22647    -0.42075
H     -1.18808     0.93932     0.23307
O     -2.03996     0.98108    -1.43643
H     -1.55379     0.66688    -2.21981
O      1.57727    -0.27268    -0.89669
H      0.84765     0.34648    -0.70262
O      2.27685     0.37849    -1.95476
H      1.76454     0.03114    -2.70698
O      0.34605    -0.81957    -3.45398
H     -0.00476    -1.44638    -2.78206
O     -0.73611     0.08401    -3.63381
H     -1.17148    -0.26387    -4.41776
O      0.69909    -2.81098     0.85502
H      1.15453    -2.10704     1.34484
O     -0.50754    -3.01060     1.60944
H     -1.15598    -2.91298     0.88331
