 24
-909.9845795079809
O     -1.87773     0.58062    -0.00877
H     -1.44634    -0.25184     0.29574
O     -2.26215     0.26886    -1.34127
H     -3.21463     0.17144    -1.25355
O      0.37027    -1.41922    -2.97694
H      0.88496    -0.74965    -2.48839
O     -0.62932    -1.78782    -2.03073
H     -1.19436    -0.99779    -1.97782
O      1.59979     0.60715    -1.64621
H      0.99373     1.33021    -1.39238
O      2.11407     0.25510    -0.35550
H      1.60520    -0.55539    -0.15075
O     -0.54783    -1.47479     0.99118
H     -0.17407    -1.19591     1.85241
O      0.61864    -1.89212     0.26781
H      0.21097    -2.10515    -0.60500
O     -0.58805     0.76225     2.83460
H     -0.05504     1.35871     2.27021
O      0.39176    -0.22826     3.14916
H      0.35318    -0.24526     4.11019
O      0.88660     2.12374     1.04771
H      1.55789     1.47707     0.74923
O      0.18259     2.31806    -0.18591
H     -0.64610     1.83249    -0.02482
