 32
-1213.3057409069988
O      2.49385    -0.04543     2.08811
H      1.55035    -0.26374     2.20103
O      2.43941     1.19984     1.39096
H      1.78556     1.71561     1.90269
O      0.16045    -2.16867    -0.45849
H      0.83241    -1.51485    -0.75271
O     -0.79801    -2.08080    -1.51975
H     -1.52905    -1.61390    -1.08444
O     -0.58508     0.67215    -0.10906
H      0.23619     0.86350    -0.63268
O     -1.30305     1.91813    -0.07311
H     -2.17719     1.55641     0.13472
O      0.47335     2.49127     2.65306
H      0.06196     2.18890     3.46916
O     -0.51293     3.37148     2.10727
H     -0.75754     2.88839     1.30003
O      1.78561     0.97107    -1.15862
H      2.22032     1.00434    -0.27111
O      1.88235    -0.41571    -1.48957
H      1.80862    -0.38749    -2.46803
O      1.03587    -0.54423    -3.99224
H      1.32377    -0.49755    -4.90850
O      0.98781    -1.95440    -3.77265
H      0.21330    -1.99626    -3.19690
O     -1.01646    -1.57348     1.86050
H     -0.54346    -1.91761     1.06833
O     -0.21114    -0.44933     2.21650
H     -0.33567     0.07525     1.39979
O     -3.15258    -0.17263     0.89284
H     -2.49160    -0.71177     1.37948
O     -3.27524    -0.89985    -0.33045
H     -4.08707    -1.40047    -0.19357
