 32
-1213.308285171286
O      1.17646    -3.05076     1.90580
H      0.40306    -2.46989     1.93504
O      1.69124    -2.78184     0.59217
H      1.15976    -3.36903     0.03339
O     -0.28560    -0.09515    -1.99079
H     -0.26260    -1.07370    -1.95027
O      0.97859     0.24892    -2.55596
H      1.55033     0.10582    -1.77619
O     -0.59807    -2.73047    -1.85464
H     -1.27995    -3.16996    -2.37110
O     -0.88064    -3.20013    -0.53851
H     -0.93920    -2.34510    -0.06003
O      0.76462     3.20785    -1.85239
H      0.67154     2.33662    -2.26324
O      1.26801     2.83951    -0.56742
H      0.70087     3.35016     0.03257
O      1.46205     0.54393     0.75319
H      1.47622     1.39830     0.26431
O      2.12346    -0.28541    -0.21211
H      2.00038    -1.19296     0.15333
O     -2.65091     0.83359    -0.03433
H     -3.38800     1.29239    -0.44641
O     -1.55344     1.64573    -0.46035
H     -1.06491     1.00928    -1.03585
O     -0.55215     2.02590     2.74185
H      0.25657     1.51814     2.59306
O     -0.52553     2.96324     1.66426
H     -1.08669     2.51435     1.00401
O     -0.68974    -0.95376     0.81694
H      0.05591    -0.30037     0.87380
O     -1.36366    -0.85828     2.07006
H     -2.01556    -0.17359     1.85792
