 40
-1516.6420449285804
O      0.93461    -0.03143    -2.59504
H      0.65676    -0.75566    -3.17523
O      0.00302    -0.28888    -1.54136
H     -0.33749     0.60073    -1.34147
O      2.61171    -0.88730    -0.75238
H      2.16891    -0.47232    -1.52418
O      2.77151     0.18108     0.17360
H      2.04892     0.79151    -0.05667
O      1.51737     2.04084     3.23479
H      1.74047     1.08754     3.22259
O      2.29579     2.50606     2.12751
H      3.04172     2.92736     2.56295
O      0.30661     2.06470     0.08494
H     -0.13404     1.80284     0.92235
O      0.58203     3.44646     0.29078
H      1.24907     3.37199     0.99471
O     -0.98786    -2.73293    -2.50410
H     -0.27489    -2.88322    -1.83935
O     -0.23696    -2.24856    -3.61098
H     -0.37563    -2.94236    -4.26121
O      0.55519    -0.67412     2.46154
H      0.46817    -1.44694     1.86256
O      1.95877    -0.56359     2.65574
H      2.28982    -0.38735     1.75012
O     -2.41926     0.61959     1.51275
H     -2.60064     1.28141     0.81294
O     -1.28951     1.23768     2.13272
H     -0.81018     0.47242     2.50280
O      0.02055    -2.55410     0.66270
H     -0.86412    -2.31592     0.31425
O      0.76032    -2.86443    -0.51557
H      1.49766    -2.22461    -0.46702
O     -2.45644    -1.63050     0.01990
H     -2.54909    -0.83948     0.58887
O     -2.78307    -1.11912    -1.27733
H     -2.16948    -1.64749    -1.82791
O     -2.17671     1.46289    -1.77597
H     -2.56653     0.59741    -1.54744
O     -2.45287     2.23944    -0.60214
H     -1.63544     2.75314    -0.51118
