 32
-1213.3119815996263
O      2.14710     0.94893     1.29671
H      1.78618     0.47457     0.52917
O      1.09098     1.84027     1.64308
H      1.22770     2.60660     1.06218
O     -1.12451    -1.86869    -0.93410
H     -0.57041    -1.10779    -1.20998
O     -0.15026    -2.78920    -0.43796
H      0.13268    -2.34646     0.38715
O      0.05678     3.62795    -0.33586
H     -0.74334     3.08926    -0.17188
O      0.51845     3.02762    -1.54232
H      0.39360     3.72359    -2.19369
O     -1.82688     1.83486     0.26272
H     -2.37874     1.03937     0.10013
O     -1.55475     1.65672     1.65884
H     -0.58262     1.55865     1.65824
O      0.24185     0.36348    -1.55048
H      0.30341     1.34028    -1.53569
O      1.63745     0.01402    -1.51063
H      1.64523    -0.73064    -2.14762
O      1.55945    -2.10603    -3.12663
H      2.06503    -2.44956    -3.86798
O      2.02086    -2.93428    -2.05822
H      1.19408    -3.00348    -1.54493
O      0.14330    -1.34631     1.75541
H     -0.75350    -1.31607     2.12731
O      0.99739    -1.29710     2.89775
H      1.48810    -0.49174     2.68855
O     -2.94517    -0.53007     0.49431
H     -2.34648    -1.16774     0.05355
O     -2.63515    -0.73001     1.87735
H     -2.38987     0.18341     2.10794
