 40
-1516.6474303179996
O     -1.10833     3.31888    -1.46201
H     -0.77875     4.22277    -1.42844
O     -1.78355     3.20090    -0.20262
H     -2.50917     2.59779    -0.46875
O      0.86721    -3.61940    -0.41996
H      0.86944    -3.24693     0.48016
O      2.22252    -3.32954    -0.79233
H      2.10560    -2.47314    -1.25212
O     -0.14503     0.87887    -2.13086
H     -0.47249     1.75046    -1.82747
O     -1.30601     0.28332    -2.72513
H     -1.14752    -0.65408    -2.49006
O     -1.51031     0.62145     1.43577
H     -1.19964     0.61391     2.35786
O     -0.40624    -0.05280     0.81450
H     -0.83772    -0.83897     0.41185
O     -1.65725    -2.05658    -0.48557
H     -2.45717    -1.57775    -0.75374
O     -0.94912    -2.17513    -1.72726
H     -0.24851    -2.81359    -1.45827
O      1.79249    -0.85342    -1.63113
H      1.04959    -0.23712    -1.81590
O      2.47985    -0.13141    -0.60297
H      2.22782    -0.62267     0.19713
O      1.65147     2.06098     1.02121
H      1.76415     1.67006     0.13788
O      0.96851     3.28117     0.77053
H      0.04349     3.00499     0.85362
O     -3.41217     0.14835    -0.36271
H     -2.79922     0.42818     0.34450
O     -3.32543     1.25244    -1.26144
H     -2.68600     0.91523    -1.92001
O      2.93557    -2.05735     1.58705
H      3.06303    -2.64140     0.82209
O      1.50628    -2.15127     1.69260
H      1.31968    -1.40948     2.30444
O      0.55727     1.12485     3.21193
H      1.02342     1.46720     2.40932
O      1.21894    -0.11883     3.41153
H      1.84173     0.07753     4.12008
