 32
-1213.3056017006504
O      2.15738     1.89449    -0.22055
H      2.82139     1.70582    -0.91159
O      2.18717     0.64588     0.48880
H      1.32397     0.68867     0.95966
O     -0.54854    -2.31097     1.03649
H     -0.64991    -3.25759     0.89588
O     -0.82761    -1.79119    -0.26313
H      0.07945    -1.65205    -0.63367
O     -0.32871     1.07268    -1.40349
H      0.25134     1.74007    -0.99625
O     -1.37174     1.84892    -2.00538
H     -2.12209     1.50592    -1.49869
O     -0.22311     0.66192     1.60099
H     -1.09019     0.89195     1.21987
O     -0.30993     1.14092     2.94075
H     -0.79773     0.40856     3.34524
O      3.49866     1.89312    -3.28481
H      4.37915     1.89337    -3.67181
O      3.65788     0.90455    -2.26483
H      2.99805     0.23677    -2.54148
O      1.62966    -1.33280    -1.19359
H      2.00574    -0.63101    -0.61311
O      1.44527    -0.62657    -2.42691
H      0.71352    -0.01935    -2.19746
O     -2.21068    -1.17121     2.82340
H     -1.57427    -1.56435     2.19275
O     -2.54503    -2.30613     3.62040
H     -2.24471    -2.01635     4.48654
O     -3.87229    -0.48356     0.33174
H     -3.78436    -0.67910     1.27447
O     -2.63777     0.16754     0.07607
H     -2.07718    -0.56920    -0.23777
