 32
-1213.310221271407
O      0.53578    -2.33579    -2.55173
H      1.17095    -3.01145    -2.80302
O      1.33548    -1.51579    -1.70113
H      0.96577    -1.73562    -0.81632
O      1.11694    -1.93356     3.12151
H      0.81552    -2.42932     3.89132
O      1.27589    -0.61487     3.64000
H      0.46211    -0.18556     3.29941
O      0.64007     1.12886    -2.73986
H      1.14440     0.33024    -2.53265
O      0.73443     1.81856    -1.49602
H     -0.16345     2.19348    -1.40283
O     -0.89223     0.32453     2.32989
H     -1.14224    -0.49047     1.83779
O     -0.36887     1.12178     1.26866
H      0.50351     0.70405     1.08172
O      2.79836     0.68704    -0.16322
H      2.09376     1.20687    -0.59263
O      2.01752     0.06062     0.86576
H      2.64701    -0.02862     1.59424
O     -1.53268    -0.30356    -1.44440
H     -1.10352    -0.11675    -2.29546
O     -2.92329    -0.08084    -1.69225
H     -3.04062     0.76748    -1.24237
O     -1.61790     3.04752    -1.03334
H     -1.72980     3.95346    -0.72912
O     -2.35822     2.29790    -0.06903
H     -1.63201     1.86230     0.42874
O     -1.16177    -1.77621     0.74353
H     -1.30060    -1.32414    -0.12080
O      0.18428    -2.24696     0.63067
H      0.50705    -2.14129     1.54604
