 32
-1213.3069333482852
O      1.82338    -1.03308     1.81173
H      2.34377    -1.47851     2.48551
O      1.22818     0.01355     2.57118
H      1.44261     0.80830     2.04215
O      1.75185    -1.91579    -2.50125
H      0.79314    -2.06071    -2.62440
O      1.79065    -1.71098    -1.08086
H      1.79777    -0.73514    -1.05274
O     -0.91911    -1.73109    -2.54538
H     -1.07485    -1.55462    -1.59857
O     -1.24819    -0.47538    -3.14601
H     -0.36371    -0.08716    -3.26957
O     -1.84629     1.54477     0.14123
H     -1.67110     0.69930     0.59391
O     -1.10011     1.37895    -1.05793
H     -1.68735     0.86319    -1.63793
O      1.43706     0.83846    -1.68752
H      0.54363     1.11022    -1.40375
O      1.22744     0.69519    -3.10004
H      1.74260    -0.11704    -3.24078
O     -1.43042     0.07704     2.67223
H     -0.45589    -0.02691     2.72586
O     -1.72246     0.62853     3.94813
H     -1.81130     1.56296     3.73270
O     -1.63972    -2.21233     0.81371
H     -1.75453    -1.71567     1.63824
O     -0.83404    -1.28726     0.08421
H      0.06616    -1.66666     0.12442
O      1.21713     2.20344     1.03296
H      1.71983     3.01556     0.91138
O      0.08874     2.64826     1.79124
H     -0.63295     2.46692     1.16245
