 36
-1364.9718089752346
O      1.20086    -2.62484     0.62562
H      1.42301    -2.23816     1.48253
O      1.97978    -1.79924    -0.24623
H      1.39705    -1.75836    -1.02116
O     -2.52646    -0.27764     1.51933
H     -3.01757    -0.59251     0.73090
O     -1.37845    -1.12545     1.37733
H     -0.92000    -0.99445     2.22986
O      1.24953    -1.02501     3.20154
H      1.31321    -0.29196     2.55001
O     -0.07143    -0.78183     3.69109
H     -0.07923    -1.30889     4.49549
O      1.48535    -1.02797    -3.45259
H      1.95967    -0.40821    -2.87586
O      0.50922    -1.48518    -2.50491
H      0.15301    -2.26739    -2.93931
O     -0.67407     1.76235    -1.69715
H     -1.09173     1.94413    -0.83017
O     -1.50212     0.72336    -2.21913
H     -0.82942     0.08280    -2.49669
O     -1.72717     2.18568     0.74814
H     -2.02221     1.32703     1.13351
O     -0.77297     2.63117     1.70208
H     -1.15075     3.47515     1.96228
O     -2.15443    -2.12404    -1.18303
H     -1.56794    -2.03946    -0.41179
O     -3.07186    -1.05071    -0.94679
H     -2.66012    -0.33373    -1.46211
O      1.29151     0.58582     1.13789
H      1.73749     0.19851     0.36288
O      1.75626     1.93465     1.15063
H      0.89062     2.36487     1.21024
O      1.86528     1.05324    -1.52554
H      0.95484     1.39923    -1.63543
O      2.61753     2.25637    -1.38977
H      2.57918     2.34794    -0.42545
