 40
-1516.6346186300364
O      3.35247    -0.91969     0.61761
H      2.64924    -1.44261     0.17654
O      3.27874     0.27007    -0.17004
H      4.19442     0.41090    -0.42711
O     -0.59726     3.61359    -0.79190
H     -0.90271     2.95890    -0.13322
O     -0.76393     2.89850    -2.01635
H     -0.05446     2.22949    -1.97184
O     -1.58459     1.63577     0.76974
H     -2.40147     1.56664     0.25380
O     -1.00919     0.36848     0.42945
H     -0.08308     0.47544     0.72738
O     -0.87374    -3.41074     2.16400
H     -1.06613    -3.79361     3.02556
O     -1.44766    -2.10840     2.26870
H     -0.65373    -1.55187     2.35470
O      2.03824     3.28109     0.64924
H      1.35880     3.64843     0.06455
O      1.49714     1.97680     0.85215
H      2.21064     1.40501     0.51587
O      0.23437    -0.33209    -2.51037
H     -0.70292    -0.06288    -2.42445
O      0.93421     0.79766    -1.97174
H      1.73713     0.37435    -1.63708
O     -2.40499     0.12250    -2.17145
H     -2.65506    -0.51811    -1.47468
O     -2.91882     1.34977    -1.63543
H     -2.24485     1.99310    -1.93955
O      1.10829    -3.33232    -0.21474
H      0.46628    -3.46744     0.49779
O      1.08545    -1.90796    -0.30654
H      0.39172    -1.71859    -0.96732
O     -1.63999    -2.46953    -1.13149
H     -2.07106    -2.88455    -1.88610
O     -2.74684    -1.88047    -0.45298
H     -2.45163    -1.95225     0.46830
O      1.15742     0.57624     3.35234
H      1.11828     1.38268     2.81420
O      1.02967    -0.43257     2.34542
H      1.94751    -0.66841     2.13116
