 36
-1364.9826961758554
O     -0.62019     1.95650     1.47995
H     -0.26393     1.91532     0.57652
O     -0.59416     0.56729     1.81581
H     -1.45542     0.43387     2.25378
O     -0.45237    -2.10491     3.28499
H      0.28863    -2.04059     2.64784
O     -1.48187    -2.59710     2.43232
H     -1.57315    -3.51063     2.71943
O      0.35825     2.05997    -1.06952
H      1.01643     2.42640    -1.68635
O     -0.63862     1.58410    -1.98099
H     -0.21911     0.73350    -2.22641
O     -2.59040    -0.56297    -0.73604
H     -3.05170    -0.92309     0.04748
O     -2.68705     0.83792    -0.40235
H     -1.97601     1.20838    -0.96428
O      2.34242     2.85737    -2.72949
H      2.24025     3.30209    -3.57561
O      2.30572     1.49042    -3.13093
H      2.86056     1.10191    -2.43292
O     -3.30486     0.30863     2.30055
H     -3.38905     0.85699     1.50691
O     -3.50529    -0.98281     1.71763
H     -2.78021    -1.49717     2.12066
O      3.02012    -0.79592    -0.93304
H      2.78181    -0.65686     0.01479
O      3.83531     0.33708    -1.21110
H      4.68429    -0.08002    -1.38025
O      0.54777    -0.79301    -2.00116
H      1.47102    -0.78709    -1.69649
O     -0.06185    -1.47022    -0.89895
H     -0.95949    -1.06089    -0.84325
O      1.77314    -0.48417     1.35122
H      0.90173    -0.04429     1.51184
O      1.38668    -1.85071     1.27069
H      0.84949    -1.82641     0.45002
