 28
-1061.6439707061475
O     -0.04734    -1.52820    -1.68367
H      0.31739    -1.55435    -0.77803
O     -0.77617    -2.74750    -1.74836
H     -1.59205    -2.47189    -1.30588
O      0.45455    -1.48734     0.93628
H     -0.48894    -1.46216     1.18567
O      1.11117    -0.88196     2.04587
H      0.66821    -0.00211     2.07564
O      0.90036     2.51269     1.45738
H      1.71313     2.00292     1.34162
O     -0.01118     1.50078     1.87937
H      0.27276    -0.06357    -2.54054
O     -2.24899    -1.59268     1.15831
H     -2.78975    -2.27186     1.57221
O     -2.72073    -1.64201    -0.18261
H     -2.61502    -0.70504    -0.43461
O     -2.18395     1.71390     0.32094
H     -2.53867     2.53199    -0.03822
O     -2.08209     0.88636    -0.83864
H     -1.12271     1.00868    -1.06742
O      0.45166     1.25972    -1.25478
H      1.36048     1.05567    -0.94658
O      0.50365     0.88130    -2.62491
H     -0.74686     1.60996     1.24290
O      2.91814     0.62690    -0.51610
H      3.72550     0.35254    -0.96559
O      3.24036     0.51946     0.86745
H      2.68369    -0.23529     1.13394
