 28
-1061.6467357602287
O     -3.14608    -2.76579     0.02677
H     -3.60901    -3.36531     0.61938
O     -1.84486    -2.76427     0.60878
H     -1.29084    -2.95016    -0.17024
O      1.92350     0.37224    -0.66527
H      1.00777     0.64344    -0.87296
O      1.76098    -1.00282    -0.31169
H      1.25529    -0.95141     0.52537
O      0.18233    -0.57233     1.79589
H      0.46431     0.33960     2.04430
O     -1.17892    -0.29487     1.43812
H     -0.48920    -3.56642    -2.38693
O      1.40050     3.52739    -0.83154
H      2.09564     3.83828    -0.24475
O      0.25232     3.66938     0.01625
H     -0.36949     3.10620    -0.46397
O     -1.54329     0.41281    -1.60542
H     -1.05509    -0.41274    -1.76824
O     -0.64219     1.08302    -0.72900
H     -0.93254     0.73816     0.14466
O      0.02047    -1.78222    -2.12996
H      0.82707    -1.57195    -1.60744
O     -0.30499    -3.06199    -1.58894
H     -1.51900    -1.19025     1.21887
O      2.31225     1.66583     1.70172
H      2.24667     1.21781     0.83422
O      0.94122     1.92476     2.00170
H      0.72302     2.65719     1.39292
