 32
-1213.309334988539
O      1.28129     1.15734     0.54692
H      1.18570     0.90342    -0.39616
O      1.59380     2.54173     0.47045
H      0.69378     2.88906     0.58257
O      0.36261    -2.64324     0.45007
H      0.76987    -2.04286     1.09835
O     -0.51771    -1.75949    -0.25210
H     -1.32577    -1.75172     0.29635
O     -1.68511     1.84297    -1.70777
H     -0.86752     1.62240    -2.18063
O     -2.53996     0.76208    -2.09351
H     -2.77940     0.40551    -1.22540
O     -1.34690     1.44130     1.65179
H     -0.45250     1.11273     1.85232
O     -1.05661     2.54776     0.79803
H     -1.39837     2.24310    -0.06460
O      3.00092    -1.03909    -0.46397
H      3.80611    -1.45873    -0.14253
O      2.57451    -1.95149    -1.48116
H      1.77404    -2.31945    -1.07763
O      1.17882    -0.13759    -3.19003
H      1.97544    -0.62835    -2.94048
O      0.73205     0.27040    -1.90784
H      0.17263    -0.47407    -1.62003
O      1.55587    -0.82355     2.23584
H      1.66651    -0.08334     1.59432
O      0.49525    -0.31480     3.04496
H      0.96673    -0.02319     3.83062
O     -2.95454    -0.25959     0.45352
H     -2.41889     0.35579     1.00787
O     -2.79810    -1.46751     1.18524
H     -3.65140    -1.88605     1.04245
