 36
-1364.9784971640881
O      1.49490    -1.25682    -0.07740
H      0.57765    -1.59216    -0.22206
O      2.25011    -2.46748    -0.06751
H      1.99009    -2.82011     0.79971
O     -1.97179    -1.39120     0.39004
H     -1.46327    -0.58793     0.61306
O     -0.93672    -2.31112     0.02448
H     -0.81796    -2.81883     0.85116
O      1.66602    -0.30515     2.46273
H      1.65335    -0.65562     1.55313
O      0.31884    -0.56588     2.89774
H     -0.18021     0.11057     2.39443
O      2.57321     0.70263    -1.59445
H      2.33002    -0.11972    -1.13324
O      1.70830     0.62725    -2.74080
H      1.51760     1.56713    -2.83909
O      0.67849     2.86333    -1.51823
H     -0.26165     3.07013    -1.36082
O      1.11722     2.52770    -0.19165
H      1.93661     2.05512    -0.41614
O     -1.61966     1.84364     1.63129
H     -2.16043     2.07201     0.85647
O     -0.70650     0.95552     0.99789
H     -0.01499     1.55735     0.62457
O     -1.18054     0.55235    -2.31707
H     -0.26538     0.22335    -2.39717
O     -2.00688    -0.58426    -2.54971
H     -2.16848    -0.89308    -1.64553
O     -2.57958     2.20074    -0.88190
H     -2.07481     1.54539    -1.42460
O     -1.92987     3.40557    -1.28029
H     -2.52635     3.75386    -1.94935
O      0.00408    -3.16607     2.41383
H      0.14215    -2.25417     2.76348
O      1.35497    -3.59149     2.25626
H      1.29691    -4.50207     2.55774
