 24
-909.9723967842872
O     -1.05985    -2.56947     0.36998
H     -1.88914    -2.29925    -0.04143
O     -0.52435    -1.28804     0.72581
H      0.22080    -1.18528     0.09702
O     -0.61627     0.91311    -1.87578
H     -1.01348     0.06394    -2.13480
O     -1.45330     1.24285    -0.75516
H     -0.78767     1.49065    -0.07649
O      1.86403     0.46336    -1.03631
H      0.96426     0.69423    -1.35814
O      1.68914    -0.93522    -0.73708
H      2.31743    -1.03796    -0.00954
O     -2.31945    -1.11077    -2.31758
H     -2.95378    -1.01291    -3.03640
O     -3.15913    -1.01302    -1.16030
H     -2.80467    -0.19544    -0.77193
O      0.23628     1.67479     1.22971
H      1.03665     1.25516     1.60846
O     -0.77497     1.27149     2.14532
H     -0.93011     0.35213     1.87072
O      2.50425     0.65594     2.23482
H      3.01286     1.09506     2.92513
O      3.47178     0.45330     1.20884
H      3.10562     1.01098     0.50976
