 24
-909.9781443380579
O     -2.87628    -0.10353    -0.26115
H     -2.35921     0.07657     0.56024
O     -2.70121    -1.51545    -0.37926
H     -3.53665    -1.85723    -0.04502
O     -0.13181    -1.98892     0.14734
H     -1.09417    -1.88359    -0.00149
O      0.36856    -1.99741    -1.19016
H      0.15417    -1.09988    -1.49450
O      2.74651     0.17961    -1.71597
H      3.57638     0.52118    -2.05965
O      2.41513     1.18172    -0.75618
H      2.48609     0.68739     0.07420
O     -0.69821     0.75709    -1.77797
H     -1.57929     0.63372    -1.38815
O     -0.21551     1.87423    -1.02238
H      0.73772     1.67789    -0.98742
O      1.52130     0.21782     1.78079
H      1.87365     0.48263     2.63458
O      1.92033    -1.15509     1.69074
H      1.17578    -1.50556     1.15590
O     -1.13864     0.45952     1.60112
H     -0.16338     0.37476     1.57070
O     -1.33634     1.85753     1.40581
H     -0.99119     1.97165     0.49589
