 24
-909.9777245508039
O      0.16440    -2.37102     1.36033
H      0.83853    -1.73060     1.04953
O     -0.31015    -2.88161     0.11582
H      0.20522    -3.68607    -0.00494
O      0.49460    -0.64476    -2.14265
H      0.38213     0.32638    -2.16831
O     -0.82430    -1.01996    -1.72527
H     -0.63430    -1.62838    -0.98360
O      2.72498     0.32984     0.04517
H      2.18845     0.87900     0.63607
O      2.00343    -0.90238     0.07136
H      1.62554    -0.91612    -0.82961
O      0.93465     1.88543     1.52116
H      0.19502     1.24426     1.56174
O      0.40965     2.80601     0.56577
H      0.19591     3.57402     1.10637
O     -1.14787     0.29095     1.17476
H     -1.73678     0.64394     0.48706
O     -1.98683    -0.53711     1.97346
H     -1.46534    -1.34972     1.94242
O     -0.49120     1.77363    -1.71476
H     -0.17612     2.12619    -0.86318
O     -1.83011     1.39559    -1.37893
H     -1.78974     0.46895    -1.67110
