 32
-1213.3071653833656
O      1.57022    -1.41826     2.28998
H      0.73932    -1.74709     1.87453
O      2.21656    -2.64925     2.61682
H      2.25933    -2.57546     3.57398
O     -1.36873     0.40094    -1.88211
H     -1.78912    -0.38609    -2.29241
O     -0.24804     0.65449    -2.72566
H      0.48645     0.40134    -2.14712
O     -2.43422    -1.87122    -2.72160
H     -3.25637    -2.16432    -3.12491
O     -2.63623    -2.24347    -1.35178
H     -1.70730    -2.30254    -1.05698
O      0.12819     3.14102    -1.36560
H     -0.06699     2.73028    -2.21910
O      1.53744     2.91712    -1.28034
H      1.81570     3.71302    -0.81757
O      1.56212     0.13521    -0.35538
H      1.63572     1.06839    -0.06898
O      2.86510    -0.41228    -0.17461
H      2.70341    -0.99823     0.57755
O     -1.79748     0.33563     1.49720
H     -1.14787     0.58545     2.17787
O     -1.55787     1.40738     0.58248
H     -1.50866     0.95735    -0.28336
O      0.48396     1.26409     2.54465
H      1.12592     0.55734     2.37755
O      0.88464     2.25015     1.57934
H      0.03492     2.42148     1.14834
O     -0.16443    -1.88166    -0.45522
H      0.46403    -1.13013    -0.39684
O     -0.63685    -1.98043     0.89417
H     -1.25102    -1.21559     0.97133
