 24
-909.9827041912018
O     -2.07783    -0.75640     0.36689
H     -1.94998    -0.30248    -0.48344
O     -1.39286     0.14158     1.24725
H     -0.59007    -0.37286     1.47225
O     -0.83138    -2.94781    -1.73235
H     -0.80504    -2.05927    -2.11808
O     -0.29016    -2.70697    -0.42973
H     -1.08334    -2.49297     0.08724
O      0.65313     1.54210    -0.87662
H      1.03728     0.79384    -0.37297
O     -0.16601     2.23473     0.06392
H     -0.69079     1.51607     0.47348
O     -1.48335     0.46398    -1.96724
H     -0.69972     1.01936    -1.73659
O     -0.92200    -0.45072    -2.90503
H     -1.50046    -0.31769    -3.66062
O      1.05810    -0.81727     1.62893
H      1.57351    -0.04057     1.92081
O      1.39014    -0.78948     0.23509
H      0.81778    -1.51306    -0.10561
O      2.39896     1.45321     1.98459
H      3.22353     1.74852     2.38242
O      1.47767     2.46039     2.40260
H      1.09081     2.70109     1.54513
