 20
-758.3096365572937
O      0.27366    -2.01239     1.76244
H     -0.22740    -1.17729     1.68465
O      0.75565    -2.15801     0.42546
H      1.60633    -1.68253     0.47571
O      2.86010    -0.51388     0.20593
H      3.50323    -0.50967    -0.50940
O      2.13379     0.69524    -0.02297
H      1.42251     0.39983    -0.63567
O      0.01708     1.27420     2.10629
H      0.82932     0.96888     1.67431
O     -0.94714     0.36884     1.56599
H     -1.45307     0.92384     0.95524
O     -0.80593    -0.83905    -1.24963
H     -0.26369    -1.37482    -0.62237
O      0.18028     0.08201    -1.75136
H     -0.36794     0.88424    -1.79613
O     -2.65586     1.26243    -0.69918
H     -2.45424     0.36310    -0.99821
O     -1.67520     1.99303    -1.44290
H     -2.21999     2.50121    -2.05175
