 24
-909.975966096799
O     -0.73755    -1.99682    -0.11046
H     -1.48853    -1.37438    -0.15458
O     -0.38346    -1.87361     1.28001
H      0.58602    -1.89180     1.19154
O      1.01861     0.66200    -2.44167
H      1.37342    -0.18381    -2.10943
O     -0.10623     0.83735    -1.57330
H     -0.86295     0.64138    -2.14231
O      1.72048    -1.69949    -1.21909
H      0.81095    -2.01987    -1.10552
O      2.02643    -1.39282     0.14791
H      2.02280    -0.41726     0.14448
O     -2.73613    -0.17578    -0.10482
H     -2.31236     0.58670     0.35217
O     -3.03757     0.37704    -1.38366
H     -3.99357     0.27026    -1.40375
O     -1.06340     1.46489     1.12318
H     -0.33541     1.39839     0.47506
O     -0.57310     0.68690     2.21750
H     -0.66239    -0.23405     1.89533
O      2.26739     1.72376     1.67296
H      1.42414     1.65883     2.14804
O      1.84731     1.27886     0.37877
H      2.06694     2.02216    -0.19634
