 36
-1364.9717351091415
O      2.73816    -1.24084     1.73472
H      2.56726    -1.27714     0.78192
O      1.66769    -2.03838     2.24529
H      1.28446    -1.44300     2.91528
O     -3.79280    -0.79242     1.73986
H     -4.58975    -0.98717     1.23646
O     -2.85209    -0.55352     0.69397
H     -2.26854    -1.32934     0.74590
O      2.17644    -0.39972    -1.07170
H      1.49597    -0.70744    -1.70111
O      1.94579     1.01361    -1.12297
H      2.27515     1.29229    -0.24487
O     -0.84645     1.69506     0.26492
H     -1.38503     0.92693     0.52767
O     -0.66952     1.45524    -1.12615
H      0.30234     1.28481    -1.17036
O      0.27388    -0.70591    -2.97641
H      0.15192     0.07986    -3.54895
O     -1.07298    -1.08084    -2.70014
H     -1.33033    -0.40046    -2.05918
O     -0.90306    -0.23502     2.94376
H     -1.56094    -0.23034     3.64817
O      0.33360    -0.10757     3.65876
H      0.65525     0.73503     3.27943
O     -0.22225     1.57168    -4.30357
H      0.19023     2.36134    -4.66789
O     -1.40572     2.08880    -3.68878
H     -1.19135     1.93579    -2.75260
O      1.15210     1.89009     2.07808
H      0.51740     1.86772     1.33467
O      2.40031     1.57848     1.46257
H      2.62170     0.72375     1.86646
O     -0.24944    -1.59889     0.27230
H      0.30890    -1.99008     0.97563
O     -0.96723    -2.72221    -0.24995
H     -0.92197    -2.50486    -1.19056
