 24
-909.9807131876264
O     -1.73523     1.23734     2.02952
H     -2.37524     1.92689     2.23400
O     -2.54583     0.07570     1.84798
H     -2.68364     0.11482     0.87490
O      1.54318    -1.33013    -1.44809
H      2.19613    -0.71287    -1.05626
O      0.80447    -0.42817    -2.28989
H     -0.06761    -0.84968    -2.30473
O      3.54474     0.00338     0.87422
H      4.41412     0.40974     0.82168
O      2.88270     0.64994    -0.21039
H      2.11281     1.05430     0.24084
O     -2.46885     0.43797    -0.80706
H     -1.69446     1.03089    -0.88868
O     -1.96439    -0.75656    -1.40556
H     -1.52590    -1.18132    -0.64177
O     -0.37599    -1.94375     0.34664
H      0.45320    -1.84440    -0.16348
O      0.00188    -1.42109     1.62612
H     -0.86599    -1.32794     2.03612
O     -0.08767     1.64587    -0.83502
H      0.40319     0.97487    -1.34852
O      0.44417     1.45563     0.47875
H     -0.35937     1.29941     1.01465
