 36
-1364.9785475841277
O      1.13559     1.08254     1.50327
H      0.81899     1.55227     0.70383
O      0.14918     1.43731     2.48555
H     -0.06469     0.54380     2.81576
O      2.41899    -2.43919     0.23294
H      1.83555    -2.66520    -0.52000
O      1.48844    -1.83084     1.11983
H      1.69074    -0.88540     1.02615
O     -1.71771    -1.41327     2.25606
H     -2.12039    -0.52687     2.17986
O     -0.47524    -1.13202     2.89152
H      0.16053    -1.60525     2.32587
O      0.78539    -1.90440    -2.85702
H      0.85826    -2.51062    -3.59919
O      0.66901    -2.82406    -1.78001
H     -0.18725    -2.55336    -1.39113
O     -2.65925     0.89029     1.21534
H     -2.40325     0.53071     0.34306
O     -2.05913     2.18715     1.19812
H     -1.22955     2.02527     1.69746
O     -2.51804     3.44111    -1.19894
H     -2.53272     3.10084    -0.28922
O     -2.04066     2.25785    -1.84924
H     -2.47463     2.30112    -2.70773
O      0.59861     0.68541    -1.30475
H      1.57364     0.60779    -1.26371
O      0.38792     2.03095    -0.86991
H     -0.51579     2.17549    -1.23797
O      3.92298    -0.60936    -1.10418
H      3.53707    -1.28684    -0.51687
O      3.18401     0.53603    -0.67011
H      3.87768     1.16625    -0.45230
O     -1.71491    -0.54106    -0.82196
H     -0.82952    -0.21522    -1.08629
O     -1.42455    -1.86695    -0.39037
H     -1.53731    -1.79000     0.58040
