 32
-1213.3070937589796
O     -0.00568    -2.77232     2.73420
H      0.03907    -3.73326     2.76160
O      1.36432    -2.37064     2.76108
H      1.56894    -2.36057     1.79827
O     -0.99360    -1.71821    -0.67888
H     -1.82728    -1.79036    -0.17948
O     -1.35861    -1.98808    -2.03122
H     -0.94960    -1.21273    -2.45057
O      0.59072     0.90906     1.14815
H      1.03235     1.66072     0.68861
O     -0.67801     0.97301     0.47542
H     -1.17182     0.28270     0.96422
O     -0.97097     3.81635    -0.95508
H     -1.28104     4.72121    -1.06177
O     -1.21022     3.60460     0.44474
H     -1.13469     2.63304     0.48237
O      2.20839     2.63170    -1.61513
H      1.87369     1.78114    -1.96015
O      1.43873     2.80703    -0.42273
H      0.67993     3.33722    -0.73457
O      1.45831    -2.26800     0.10660
H      0.54428    -2.15710    -0.23618
O      2.02860    -0.98819    -0.15497
H      1.56291    -0.39768     0.47413
O      1.36563     0.20415    -2.48506
H      1.56126    -0.39450    -1.73154
O     -0.05193     0.32351    -2.48525
H     -0.23168     0.72548    -1.62543
O     -1.79030    -0.99810     1.92297
H     -1.12961    -1.64655     2.25612
O     -2.73658    -1.86342     1.30673
H     -3.56141    -1.56371     1.69662
