 40
-1516.6548018233373
O      2.17210    -0.62194    -3.03523
H      1.44260    -1.26352    -2.92956
O      1.66180     0.51547    -2.35715
H      0.96344     0.86057    -2.94830
O     -0.72391    -1.81752     0.81716
H     -0.88373    -2.21822    -0.06453
O     -0.66042    -0.44563     0.42137
H      0.28736    -0.33114     0.20099
O      1.75204     0.78267     2.52682
H      1.46816     1.14525     1.66283
O      0.56501     0.88683     3.32443
H      0.39692    -0.06446     3.47784
O     -0.64257     1.80664    -2.81910
H     -0.42863     2.23380    -1.96755
O     -1.09856     0.54153    -2.35663
H     -1.93126     0.77273    -1.88839
O     -1.29335     2.22588     1.92759
H     -0.69003     1.80497     2.57852
O     -2.28071     1.20955     1.72934
H     -1.76653     0.53419     1.24307
O      1.20128     1.62784     0.05876
H      1.47241     1.27536    -0.81349
O      0.11809     2.48719    -0.32474
H     -0.47448     2.41858     0.46286
O     -3.39759     0.86577    -1.03984
H     -4.27662     0.58065    -1.30402
O     -3.64408     2.13611    -0.44168
H     -3.37408     1.94158     0.47524
O     -0.78988    -2.08572    -1.81337
H     -0.80193    -1.16043    -2.12203
O      0.46891    -2.58085    -2.27068
H      0.92572    -2.75142    -1.42501
O      0.69108    -1.74831     3.11974
H      0.15534    -1.92136     2.32527
O      2.01693    -1.82126     2.58308
H      2.19565    -0.86208     2.49404
O      2.18559    -1.13631    -0.21395
H      2.64274    -1.10509    -1.07050
O      1.96913    -2.54622    -0.02576
H      2.07086    -2.58074     0.94285
