 24
-909.9708359680176
O     -2.86904    -0.15009     0.78687
H     -2.19368    -0.79008     1.05241
O     -2.90038    -0.35776    -0.62593
H     -2.28347     0.31649    -0.95700
O      0.29819    -1.56667    -0.72611
H      0.98241    -1.60148    -0.02719
O     -0.83313    -2.09085    -0.02453
H     -1.51489    -1.96729    -0.69588
O      2.41528     0.69567    -0.78986
H      2.76963     0.67239     0.10842
O      1.49507     1.79857    -0.68655
H      1.02494     1.71431    -1.52626
O     -1.05655     1.30303    -1.83089
H     -1.35881     1.86052    -2.55403
O     -0.28968     0.32576    -2.53368
H     -0.08829    -0.31359    -1.81933
O      2.13919    -1.76484     1.20931
H      2.15564    -2.43581     1.90068
O      2.38211    -0.55538     1.92522
H      1.49405    -0.14998     1.89303
O      0.09350     0.70673     1.33043
H      0.45210     1.25640     0.59979
O     -0.77559     1.59994     2.02582
H     -1.62615     1.32501     1.65473
