 16
-606.6315700998531
O     -2.62800    -0.66756     0.73079
H     -2.91518    -0.87168     1.62759
O     -2.29875     0.71979     0.81424
H     -1.33180     0.68155     0.74867
O      0.52324     0.87358     0.33373
H      1.29531     1.28000    -0.09137
O      1.13133    -0.15994     1.12277
H      0.86988    -0.94043     0.61276
O      2.43073     2.78420    -0.75164
H      3.38892     2.69443    -0.75346
O      2.10108     2.01705    -1.91955
H      1.37982     2.54814    -2.27077
O     -0.59330    -2.04460    -0.31519
H     -1.37188    -1.54111     0.00599
O     -0.87893    -3.34285     0.21296
H     -1.11318    -3.81470    -0.59133
