 40
-1516.6411439827416
O      1.82360    -1.79959    -1.88975
H      1.97809    -0.89371    -2.23498
O      0.51572    -2.11446    -2.35282
H     -0.02098    -1.94516    -1.56124
O      1.15852    -0.37320     3.63699
H      1.26346    -0.12507     4.56245
O      2.46725    -0.82426     3.26282
H      2.26852    -1.13428     2.35447
O      0.29393     1.06520     1.58448
H      0.62266     0.55287     2.35722
O     -0.86870     1.70562     2.14037
H     -1.38073     1.79925     1.31044
O     -2.42885    -1.34688     0.60930
H     -2.20289    -1.41298     1.56605
O     -1.11702    -1.20647     0.06077
H     -0.90359    -0.27407     0.25004
O     -1.98515    -0.26778     3.69330
H     -1.68945     0.45383     3.10723
O     -1.41206    -1.41243     3.05170
H     -0.49255    -1.38389     3.35715
O      0.39683     2.98452    -1.28733
H      0.76741     2.81239    -2.17087
O      1.40822     2.33037    -0.50683
H      0.90183     2.00293     0.26318
O     -0.38832    -0.09461    -3.85021
H     -0.07622    -0.96276    -3.51945
O     -1.51934     0.11077    -3.00621
H     -2.24098     0.13461    -3.64336
O     -1.76403     1.56501    -0.30561
H     -1.32132     2.05262    -1.01737
O     -3.09827     1.34794    -0.76647
H     -3.14459     0.38914    -0.63673
O      1.70853    -1.55575     0.77289
H      1.93812    -1.77113    -0.15477
O      0.80995    -2.63735     1.07123
H     -0.02427    -2.22137     0.77436
O      1.58431     1.64188    -3.23291
H      0.85925     1.04566    -3.49616
O      2.35264     0.78081    -2.38399
H      2.22879     1.24712    -1.53101
