 20
-758.3112161524557
O     -0.30493    -1.59232     1.01727
H     -1.21719    -1.38231     1.27048
O      0.40342    -0.51278     1.65159
H      1.31185    -0.82241     1.54232
O      2.88788     0.64413     0.05499
H      3.74072     0.77315    -0.37354
O      2.67122    -0.75472    -0.07198
H      1.99855    -0.79043    -0.77184
O     -2.38538     0.28973     0.38481
H     -2.04992     0.01044    -0.49119
O     -2.92435    -0.93627     0.87249
H     -3.77787    -0.64290     1.20563
O     -0.83396    -0.11760    -1.79932
H     -0.29652     0.67470    -1.57799
O      0.13265    -1.15721    -1.57461
H     -0.10677    -1.42414    -0.66767
O     -0.14255     2.37492     0.34865
H     -0.78154     1.66614     0.52004
O      0.60726     1.83279    -0.73231
H      1.40597     1.48834    -0.29183
