 36
-1364.9725820702586
O      0.92968     1.38623    -2.13346
H      1.65143     0.79473    -2.42359
O      1.61264     2.63349    -1.99320
H      0.85316     3.18833    -1.73184
O     -1.82787     1.46726    -0.39454
H     -1.39751     0.69622    -0.80830
O     -1.47214     1.31598     0.97958
H     -0.48950     1.29321     0.93824
O     -0.13736    -2.32300    -1.77257
H      0.75367    -1.97910    -1.93806
O     -0.76615    -1.17843    -1.19702
H     -1.00711    -1.50035    -0.30153
O      2.67517    -1.37703    -1.42565
H      2.31146    -0.94283    -0.61506
O      2.99859    -0.28146    -2.27445
H      3.85761     0.01326    -1.95208
O      1.12916     1.07962     0.49253
H      1.09919     1.17609    -0.48718
O      1.60016    -0.25414     0.70054
H      0.83893    -0.66458     1.16537
O     -3.37046     0.23567     2.56434
H     -2.72976     0.66011     1.96111
O     -2.44271    -0.29719     3.52479
H     -3.03164    -0.76785     4.12200
O     -0.69137     3.77926    -1.18098
H     -1.22194     3.02935    -0.84070
O     -0.50668     4.56574    -0.01054
H     -0.96855     5.37277    -0.25569
O     -1.30481    -2.13568     1.23599
H     -0.83113    -2.97792     1.31583
O     -0.48074    -1.27628     2.02835
H     -1.15412    -0.92209     2.65207
O      1.68391    -3.29823     0.61635
H      2.41967    -3.81646     0.27104
O      0.54104    -4.05194     0.19882
H      0.25639    -3.54070    -0.58569
