 32
-1213.3042600204567
O      3.13437    -2.25912     0.81325
H      2.62399    -1.96982     0.03599
O      2.30704    -1.76119     1.86698
H      2.66840    -0.86372     1.98160
O      1.75920    -1.17114    -1.21372
H      0.89316    -1.13396    -1.65713
O      2.35237     0.07861    -1.55586
H      2.63644     0.37549    -0.68049
O     -2.82748    -1.84180     0.44477
H     -1.94444    -2.01198     0.81050
O     -2.58898    -0.55770    -0.14330
H     -2.33481    -0.76396    -1.05887
O     -0.71261     2.71789    -1.40953
H     -1.18720     2.71081    -0.56775
O     -0.07817     1.44009    -1.32911
H      0.85718     1.64049    -1.48449
O      1.94262     1.35191     1.01220
H      1.14565     0.79241     1.16701
O      2.87298     0.85341     1.97075
H      2.73975     1.44730     2.71477
O     -0.42564    -1.38694    -2.77887
H     -0.32904    -1.50579    -3.72843
O     -1.44557    -0.38661    -2.69552
H     -0.92155     0.36768    -2.35345
O     -0.22196    -0.07149     1.48135
H     -1.02059     0.23219     1.00928
O     -0.20255    -1.45242     1.08325
H      0.71343    -1.69107     1.36270
O     -3.59949     1.98789     0.96780
H     -3.64519     1.07544     0.63774
O     -2.20094     2.06610     1.24764
H     -2.18421     2.16008     2.20655
