 40
-1516.6430497279412
O     -0.44703     1.82068    -0.27666
H     -0.16981     2.42391     0.44408
O     -1.67892     1.27565     0.19119
H     -1.69165     0.41145    -0.25907
O      2.26381    -1.11255    -0.31457
H      2.06202    -1.75013    -1.02345
O      0.91956    -0.78161     0.05131
H      0.79364     0.08328    -0.39017
O      1.12620     3.13749     2.94818
H      0.44253     2.46679     3.12706
O      1.00788     3.29381     1.53658
H      1.81056     2.84087     1.23405
O      2.77683     1.04142     1.31270
H      2.82278     0.19580     0.83817
O      2.60602     0.59598     2.67289
H      2.43404     1.44473     3.10078
O     -2.02142    -0.59717    -3.28882
H     -1.24956     0.01121    -3.23198
O     -3.06976     0.24418    -2.81234
H     -3.52595     0.45278    -3.63330
O      1.01222    -2.71907    -2.16361
H      0.10320    -2.77489    -1.80232
O      0.76644    -1.94116    -3.33255
H      1.07106    -2.52564    -4.03324
O     -1.92640    -1.63806    -0.41401
H     -1.61069    -2.07863     0.39315
O     -1.57165    -2.56727    -1.44331
H     -1.89042    -2.07190    -2.21826
O      1.13531     0.53774    -2.41006
H      1.03229    -0.35006    -2.79653
O     -0.08750     1.16203    -2.82804
H     -0.30790     1.66337    -2.02277
O     -1.19717    -1.94223     2.28977
H     -1.68623    -1.14166     2.55995
O      0.12857    -1.45871     2.52246
H      0.44694    -1.24643     1.61781
O     -1.67838     0.61156     2.78371
H     -1.59429     0.97331     1.88217
O     -0.44621     0.98402     3.39382
H      0.04864     0.14135     3.33758
