 36
-1364.978038165331
O      1.63004     1.06621     1.75783
H      2.27238     0.60018     1.19107
O      1.53550     2.35073     1.12158
H      0.56406     2.44327     1.05602
O     -3.30949     0.41571     0.78535
H     -2.93116    -0.38111     0.35558
O     -4.66424     0.04447     1.01669
H     -5.10900     0.63017     0.39868
O      3.01716    -0.45809    -0.09537
H      2.99458     0.20340    -0.81157
O      2.60776    -1.64604    -0.77674
H      1.89929    -1.97504    -0.20486
O      1.48807    -0.78052    -3.02466
H      2.01615    -1.27332    -2.36762
O      0.27906    -1.55149    -3.05310
H     -0.25749    -1.08277    -2.38400
O      1.01348     1.62932    -1.98024
H      1.14007     0.78251    -2.46872
O      2.31569     1.83067    -1.41886
H      2.07541     2.26569    -0.58269
O     -0.64496    -0.27247     1.88862
H      0.16760     0.27642     1.97272
O     -1.37484     0.13638     3.04387
H     -2.21435     0.35945     2.62360
O     -1.73824    -1.43520    -0.38879
H     -1.01240    -2.05636    -0.17626
O     -1.03136    -0.37657    -1.03871
H     -0.68681     0.13252    -0.27587
O     -1.04210     2.09245     0.55945
H     -1.97779     1.83867     0.51546
O     -0.90216     2.95987    -0.56727
H     -0.28779     2.44049    -1.11875
O      0.29167    -2.98925     0.47823
H      0.30012    -3.95029     0.48907
O      0.49220    -2.68326     1.86202
H     -0.07982    -1.88723     1.94657
