 36
-1364.9769641670387
O      2.55527     1.25652     3.07447
H      1.61089     1.20101     3.26423
O      2.56607     1.36524     1.65523
H      2.30903     0.46493     1.36668
O      1.44462    -1.00905     0.99321
H      1.78844    -1.65625     0.36119
O      0.07194    -1.00786     0.57826
H     -0.31063    -0.26673     1.09656
O      0.50045     2.81495    -0.38812
H     -0.31304     2.28719    -0.51436
O      0.55508     2.94863     1.03820
H      1.41673     2.50671     1.24070
O      1.31987    -2.85313    -1.27297
H      0.39887    -2.85227    -1.62114
O      2.04231    -2.20338    -2.31916
H      2.69520    -2.86846    -2.55266
O     -0.62005     0.94809     3.41501
H     -1.45970     1.03662     3.87164
O     -1.03399     1.01517     2.05054
H     -0.61737     1.86133     1.76608
O     -3.83882    -1.11906     0.25675
H     -3.26799    -1.81081    -0.12464
O     -3.83513    -0.17223    -0.81081
H     -4.76641    -0.10309    -1.03918
O      2.50286     1.30582    -1.38372
H      1.93168     2.02686    -1.06411
O      1.50549     0.28895    -1.47609
H      1.98420    -0.48723    -1.81615
O     -1.54578     1.19099    -0.89066
H     -2.43771     0.81703    -0.75021
O     -1.07311     0.33743    -1.93790
H     -0.10500     0.36412    -1.76024
O     -1.24399    -2.34392    -1.89299
H     -1.30700    -1.36561    -1.95549
O     -1.65065    -2.61254    -0.55305
H     -1.00792    -2.06321    -0.05283
