 32
-1213.309012219437
O      1.50534     0.31673    -1.10888
H      1.59236    -0.19679    -1.93827
O      2.48094    -0.30214    -0.26479
H      2.06538    -1.17143    -0.10027
O     -1.29178    -0.74072    -1.45090
H     -1.29208    -0.54984    -0.47649
O     -2.49879    -0.12293    -1.89355
H     -3.14003    -0.82907    -1.76898
O      0.01531    -3.01840     0.05996
H     -0.20648    -2.38489     0.77024
O      1.41918    -2.78707    -0.13201
H      1.49638    -3.01272    -1.06904
O     -0.78606     2.57829    -1.41138
H     -1.48294     1.96345    -1.66914
O     -0.34550     1.99665    -0.19428
H      0.34516     1.35788    -0.49044
O      1.46044     1.44563     3.14798
H      0.81639     2.16541     3.09021
O      1.15021     0.76209     1.93249
H      1.94645     0.84424     1.38434
O      1.58429    -1.32638    -3.25188
H      1.54748    -1.30299    -4.21314
O      0.69243    -2.38326    -2.91893
H     -0.03804    -1.88639    -2.51676
O     -0.64574    -1.15030     1.91404
H      0.12295    -0.54651     2.02062
O     -1.51893    -0.30630     1.14720
H     -1.61440     0.48327     1.72383
O     -1.90266     1.94653     2.56731
H     -2.71641     2.45958     2.58485
O     -0.92712     2.93128     2.23353
H     -0.71639     2.65532     1.31455
