 24
-909.9783607914349
O     -2.34707    -2.29873    -0.68797
H     -2.51147    -1.34180    -0.64990
O     -2.44812    -2.64527     0.68889
H     -3.25514    -3.16967     0.71480
O      0.24407    -0.79947    -1.79311
H      1.06485    -0.30558    -1.58912
O      0.43776    -2.00594    -1.04569
H     -0.45871    -2.37643    -1.07246
O      0.61545    -0.65610     1.20497
H      0.78852    -1.26381     0.45339
O      0.05232    -1.53550     2.17010
H     -0.75973    -1.81596     1.72708
O     -1.28961     1.09207     0.44703
H     -0.69336     0.39438     0.78713
O     -1.82345     0.52617    -0.75741
H     -1.02543     0.25489    -1.24228
O      2.76781     1.12220     0.28985
H      2.18031     0.63026     0.87974
O      2.12090     0.92602    -0.97105
H      1.55014     1.72943    -0.98532
O      0.54974     2.93229    -0.32792
H     -0.24929     2.44900    -0.03417
O      1.11348     3.35244     0.92220
H      2.01583     3.02229     0.82660
