 32
-1213.3121363509285
O     -2.20374    -0.78559     1.88854
H     -2.22691    -0.99280     0.93067
O     -1.32945    -1.82609     2.32733
H     -0.50549    -1.32411     2.48720
O     -0.24199    -0.07055    -3.83499
H     -0.47801    -0.74607    -4.47772
O      1.16353    -0.26652    -3.65714
H      1.19528    -0.63850    -2.75646
O     -0.66011    -2.70126    -0.06048
H     -0.91743    -2.72854     0.88276
O     -1.48337    -1.60844    -0.48464
H     -0.81899    -0.93098    -0.69557
O     -1.90118     1.62761    -1.21726
H     -1.78295     1.81527    -0.26732
O     -0.62834     1.05049    -1.50055
H     -0.70422     0.75464    -2.43355
O      2.16820     1.58204    -0.27514
H      2.78977     1.97305     0.34955
O      1.13169     2.57138    -0.34117
H      0.51478     2.10364    -0.94951
O      1.29701    -0.80311    -0.99678
H      1.64940     0.03282    -0.62898
O      1.85202    -1.77031    -0.10724
H      1.06667    -2.33978    -0.02101
O      0.83667    -0.32180     2.60375
H      0.52935     0.59527     2.47671
O      2.18144    -0.25515     2.12794
H      2.15568    -0.92055     1.41789
O     -1.63597     1.86807     1.46608
H     -1.86381     0.99010     1.82395
O     -0.29925     2.03546     1.93888
H      0.14651     2.41546     1.15880
