 32
-1213.3054737395878
O      1.73442    -0.41232    -1.20565
H      0.95580    -0.06464    -0.73496
O      2.65978     0.66968    -1.12730
H      2.54252     0.96071    -0.19009
O     -0.32948    -1.32223     0.50743
H      0.46154    -1.88462     0.66981
O     -1.00157    -1.98952    -0.56303
H     -1.02718    -1.28861    -1.25198
O     -1.39799    -0.02621    -2.35656
H     -0.63985     0.55476    -2.56714
O     -2.21473     0.93485    -1.64934
H     -2.83803     0.33903    -1.17592
O      2.65286     0.32975     2.31065
H      3.02487    -0.34390     1.72543
O      2.07904     1.23458     1.37280
H      1.13974     1.22588     1.63523
O      0.16716     1.98971    -0.81613
H     -0.79349     2.10572    -0.87082
O      0.49939     1.84080    -2.21935
H      1.44126     1.61731    -2.12040
O      1.88870    -2.73731     0.90495
H      2.12638    -3.61604     0.58974
O      3.02324    -1.95025     0.52473
H      2.65229    -1.45187    -0.23616
O     -0.59566     0.93135     1.81055
H     -0.71245     0.08447     1.33021
O     -1.78083     1.62937     1.45525
H     -1.89415     2.19241     2.22686
O     -3.72867    -0.23293     1.17847
H     -3.08690     0.49509     1.16639
O     -3.59168    -0.76491    -0.14259
H     -2.94604    -1.47863    -0.02167
