 32
-1213.3107612656213
O      0.35779    -3.07326     1.23752
H      0.56278    -3.95312     0.90020
O      1.64856    -2.50487     1.42522
H      1.68658    -1.89576     0.67043
O     -1.40355    -1.76263    -0.68527
H     -1.20700    -2.17701     0.16747
O     -2.27852    -0.70396    -0.29646
H     -1.96293     0.04827    -0.84777
O      1.39126    -0.78571    -2.22551
H      0.76265    -0.12740    -2.58341
O      1.03385    -0.74195    -0.85675
H      0.12071    -1.11772    -0.86116
O      1.55094     3.88572    -1.82639
H      1.78847     3.16806    -1.21309
O      1.38385     3.12727    -3.03104
H      1.46424     3.81291    -3.69894
O      0.39716     1.94087     0.47556
H      0.33525     1.19301     1.11430
O      1.67160     1.70893    -0.14296
H      1.52758     0.80259    -0.49382
O     -0.38995     1.16361    -2.65031
H      0.12709     1.98790    -2.75053
O     -1.25248     1.46060    -1.54771
H     -0.62666     1.72978    -0.83512
O      0.02016    -0.17889     2.02306
H     -0.75366    -0.70563     2.32457
O      0.94003    -0.30940     3.10434
H      1.41074    -1.10970     2.82955
O     -2.00842    -1.78076     2.71828
H     -2.23215    -2.01372     3.62558
O     -3.24577    -1.26529     2.20836
H     -2.95125    -1.02012     1.31461
