 28
-1061.6377379146195
O     -2.25635    -1.13492     0.77339
H     -2.03334    -0.18144     0.80792
O     -3.01651    -1.24725    -0.42513
H     -2.40366    -0.87239    -1.07588
O      0.69645    -0.07971     2.98979
H      1.39589    -0.26380     3.62174
O      1.14334     1.15683     2.43585
H      0.28742     1.59773     2.29508
O      0.63897    -2.48087     1.20395
H      0.52483    -1.59033     1.56053
O     -0.07820    -2.38195    -0.02522
H      2.22110     2.23915     0.78802
O     -1.39770     1.41120     0.43370
H     -0.47242     1.38481     0.09014
O     -1.22262     2.18650     1.62119
H     -1.67639     3.00135     1.38846
O     -0.81468     1.04382    -2.69155
H     -0.16478     1.56049    -2.19614
O     -0.72659    -0.21838    -2.03298
H      0.11500    -0.58578    -2.36891
O      1.10929     1.40726    -0.42492
H      1.58968     0.57336    -0.61835
O      2.14608     2.34773    -0.17058
H     -0.98772    -2.08628     0.26079
O      1.95578    -1.11330    -1.11090
H      1.24349    -1.69768    -0.74041
O      1.71715    -1.17818    -2.51635
H      2.17914    -1.98016    -2.77942
