 24
-909.9804799030701
O     -0.47705    -2.02263    -0.97625
H      0.16961    -1.71674    -0.31268
O     -1.56033    -2.36595    -0.10220
H     -1.94331    -1.48704     0.07703
O     -1.29503     0.49055     1.56619
H     -1.30178     1.45546     1.67443
O     -2.19894     0.25289     0.47501
H     -1.71817     0.64236    -0.29031
O      2.87696     0.25604    -0.61982
H      2.52198    -0.18141     0.17000
O      1.75282     0.10097    -1.49009
H      2.12316    -0.37385    -2.24393
O     -1.18054     0.14825    -2.40189
H     -0.96967    -0.70335    -1.95976
O     -0.66146     1.10246    -1.47867
H      0.27769     0.82302    -1.42723
O      0.79159    -2.02152     2.11721
H      0.03636    -2.55125     1.82563
O      0.85031    -1.03359     1.10147
H      0.18349    -0.37649     1.40240
O     -0.07050     2.92436     0.78561
H     -0.36286     2.63995    -0.09318
O      1.12070     2.14934     0.94037
H      1.82549     2.78139     0.74893
