 36
-1364.9701749911087
O      2.11919     1.31944     0.30202
H      1.93672     1.16499    -0.64949
O      3.37224     1.99442     0.29718
H      3.93214     1.29867    -0.07877
O     -1.85583    -1.95177     0.47807
H     -2.11098    -1.41068    -0.29988
O     -2.66747    -1.37223     1.50169
H     -1.99376    -0.94357     2.06846
O     -0.80134    -0.01913     2.92817
H     -0.59208     0.80024     2.43553
O      0.45578    -0.69094     2.90289
H      0.64588    -0.77177     3.84198
O      4.49561    -1.45218    -1.28615
H      3.80853    -1.75170    -0.67051
O      4.26480    -0.04602    -1.30659
H      3.69428     0.07731    -2.07678
O     -0.30385     2.06250     1.25857
H      0.64386     1.98743     1.02537
O     -0.89373     1.62313     0.03270
H     -1.84344     1.54032     0.26907
O     -4.35870     0.39269     0.41245
H     -3.83015    -0.29620     0.87277
O     -3.50516     1.52466     0.55996
H     -3.98275     2.06334     1.20027
O      0.03732     0.85433    -2.31960
H     -0.28231     1.15801    -1.44733
O      1.28120     0.23966    -1.99871
H      1.00729    -0.60109    -1.56924
O     -2.44641    -0.40068    -1.59043
H     -3.33408    -0.11600    -1.84999
O     -1.89732    -0.95686    -2.79225
H     -1.16473    -0.32793    -2.92283
O      2.05100    -1.69593     0.54560
H      2.11142    -0.73862     0.70680
O      0.92926    -1.77053    -0.32189
H      0.16259    -1.85160     0.27852
