 36
-1364.9669688719289
O     -2.38549     1.86074     0.26062
H     -2.09755     1.84701    -0.68453
O     -2.69771     0.48614     0.48567
H     -3.52903     0.36988     0.01356
O     -1.54499    -2.48827     0.32457
H     -0.87149    -3.02469     0.77950
O     -0.75199    -1.31492     0.12609
H     -1.36962    -0.59936     0.37867
O      1.04460    -0.57732     2.34182
H      0.57445    -1.09118     1.66453
O      1.06722     0.71212     1.72691
H      0.41731     1.23484     2.24340
O     -0.26120    -0.69749    -2.41520
H     -0.33749    -1.08968    -1.51771
O      1.13309    -0.38297    -2.51517
H      1.20610     0.47501    -2.04054
O     -1.58887     2.31064    -3.28185
H     -2.22896     2.15098    -3.98029
O     -1.97587     1.33759    -2.32180
H     -1.30786     0.61849    -2.45383
O      0.06003     3.36570     1.87462
H      0.43519     3.77051     2.66063
O     -0.86903     2.44530     2.45025
H     -1.49923     2.36723     1.71090
O      1.43341     1.59250    -0.74143
H      1.33050     1.13825     0.12102
O      0.28053     2.44056    -0.74153
H      0.39229     2.91810     0.09401
O      2.22539    -1.88947    -0.55088
H      1.97730    -1.41331    -1.37345
O      3.19388    -1.01092     0.03818
H      2.69521    -0.65418     0.78646
O      1.37992    -4.35741     0.86787
H      1.87223    -3.61967     0.47639
O      0.48578    -3.62115     1.69941
H      0.56616    -4.06592     2.54874
