 24
-909.9810991287751
O     -0.24667    -0.26325     1.95903
H      0.58847     0.20733     1.78387
O     -1.16387     0.80188     1.66686
H     -2.01899     0.32708     1.73274
O      1.25018    -0.74570    -1.78986
H      0.86937    -1.37056    -1.13821
O      0.11914     0.11234    -2.00145
H      0.31952     0.82965    -1.36904
O      3.70521     1.04346    -0.60199
H      4.54210     1.51336    -0.65924
O      3.28569     1.04468    -1.97380
H      2.62917     0.32513    -1.93585
O     -0.40271    -1.95466    -0.13864
H     -0.38985    -1.43169     0.68638
O     -1.59350    -1.44136    -0.75472
H     -1.19947    -0.76932    -1.34975
O     -3.51494    -0.42224     1.79558
H     -4.41093    -0.14401     1.58606
O     -3.44867    -1.72639     1.21334
H     -2.82107    -1.56762     0.48235
O      1.49911     1.36374     0.87082
H      2.28113     1.30236     0.28621
O      0.51138     1.89417    -0.02567
H     -0.28085     1.72012     0.51530
