 32
-1213.3123813585119
O      1.22872     2.22325    -0.48761
H      1.42070     1.42148    -0.99211
O      1.90774     1.97377     0.73671
H      1.17556     1.84531     1.35487
O     -0.98793    -2.29441     0.64556
H     -0.03220    -2.22897     0.86317
O     -0.90668    -2.10897    -0.77451
H     -1.63110    -1.47874    -0.93925
O     -1.38932     0.80481    -1.08446
H     -0.73702     0.54751    -1.75719
O     -2.47060    -0.07283    -1.39662
H     -3.13887     0.21239    -0.74331
O     -0.74490     0.63714     1.51330
H     -0.96307     0.77118     0.56875
O     -1.83733    -0.15539     1.97466
H     -1.61992    -1.02414     1.57335
O      1.05024    -0.39585    -2.05754
H      0.68683    -1.21501    -1.67839
O      2.14335    -0.85764    -2.85379
H      2.88274    -0.57409    -2.29820
O      3.62426     0.01265     0.18287
H      3.21231     0.86590     0.43225
O      4.00885     0.28477    -1.16007
H      4.93685     0.04147    -1.13208
O      1.32342    -0.90642     2.15008
H      0.55597    -0.32570     1.97183
O      1.49095    -1.51377     0.86722
H      2.28845    -1.06245     0.53664
O     -4.11503     0.51779     0.68732
H     -3.44897     0.37670     1.38652
O     -4.40702     1.90241     0.83904
H     -5.35535     1.87038     0.98792
