 24
-909.9812473754512
O     -2.13494     0.96046    -0.61455
H     -2.49122     0.51436     0.17966
O     -2.27045    -0.04383    -1.61978
H     -1.52186    -0.63543    -1.41501
O     -0.10698    -1.55518    -0.98927
H      0.00860    -1.29059    -0.06272
O      1.02592    -0.95851    -1.61749
H      0.71867    -0.03566    -1.75523
O      2.95513    -0.65360     0.23100
H      2.30200    -0.87717    -0.46685
O      3.28407     0.68132    -0.15494
H      4.14983     0.57889    -0.56383
O     -2.50893    -1.75678     1.14310
H     -3.24450    -1.81954     0.52772
O     -2.71099    -0.43446     1.65956
H     -1.86252    -0.30412     2.10198
O      1.09768     0.11757     2.47496
H      1.86742    -0.22721     2.00044
O      0.09691     0.01461     1.46787
H      0.22289     0.84161     0.95429
O      0.90259     1.90504    -0.20679
H      1.80348     1.54558    -0.33238
O      0.27737     1.58649    -1.45675
H     -0.66559     1.51951    -1.17554
