 40
-1516.6391259316815
O      0.89720     0.25914     2.60304
H      0.97479    -0.60474     2.16529
O      1.47601     1.13548     1.63782
H      0.76278     1.78507     1.45213
O      0.69338     3.25886    -1.63037
H      1.08867     3.82523    -2.29917
O      0.63044     2.00374    -2.28993
H      1.21403     1.45318    -1.74064
O     -1.68023     0.67537    -1.81343
H     -0.95750     1.22142    -2.16408
O     -1.33117     0.71374    -0.43326
H     -1.20271    -0.23105    -0.17883
O     -2.03101    -2.02783     2.77378
H     -2.16253    -1.04872     2.78461
O     -0.94029    -2.14701     3.69065
H     -1.38076    -2.54051     4.45117
O     -0.22723     3.06266     0.89976
H     -0.07673     3.24629    -0.04300
O     -1.64424     2.89853     0.95228
H     -1.74101     2.05836     0.45833
O      1.84169    -0.25932    -0.99565
H      2.23688    -0.72543    -1.77217
O      2.93857    -0.22031    -0.09265
H      2.51950     0.31801     0.61253
O      1.91972    -1.91166    -3.99718
H      1.14946    -2.06496    -3.40999
O      2.91517    -1.58565    -3.01847
H      3.41419    -2.40473    -2.93136
O     -0.82915    -1.82821     0.32069
H     -1.23809    -2.10588     1.16875
O      0.56667    -1.90886     0.64248
H      0.98189    -1.31959    -0.03045
O     -1.27402    -1.79378    -2.92395
H     -1.41851    -0.92472    -2.50545
O     -0.09025    -2.25401    -2.25829
H     -0.44248    -2.75660    -1.50601
O     -2.13621     1.68617     3.36407
H     -2.08445     2.37076     2.67719
O     -1.74291     0.56646     2.58262
H     -0.77786     0.53590     2.75531
