 20
-758.3051901124895
O      1.23992    -1.73708     1.72626
H      0.63626    -1.73226     0.95781
O      1.82984    -0.43775     1.65479
H      1.15048     0.10917     2.08891
O      0.15422    -1.81925    -1.58551
H      0.97394    -1.32675    -1.39746
O     -0.51519    -1.71978    -0.32332
H     -1.04183    -0.91719    -0.44420
O     -0.83895     1.27666     1.04584
H     -0.05957     1.29027     0.44792
O     -0.19393     1.20112     2.32288
H     -0.92156     0.91044     2.88133
O      1.94162     0.14766    -0.93171
H      2.03508    -0.05816     0.02651
O      1.01410     1.23822    -0.86012
H      0.39560     1.00558    -1.56914
O     -1.69633     0.53654    -1.74423
H     -2.12276    -0.05083    -2.37783
O     -2.75800     1.42334    -1.37447
H     -2.54313     1.53641    -0.43919
