 20
-758.3091554722074
O     -0.45869    -1.74671     1.68016
H     -0.59112    -1.67870     2.63020
O     -1.20183    -0.62885     1.18889
H     -0.56545     0.10775     1.38163
O      1.94409    -0.26928    -0.21405
H      1.26286    -0.58193    -0.83798
O      2.06629    -1.37320     0.68282
H      1.15089    -1.50155     0.98326
O      0.71960     1.09126     1.67015
H      1.43760     0.72588     1.10209
O      0.45100     2.35769     1.05822
H     -0.13204     2.09948     0.32470
O     -0.81226     1.63669    -2.08951
H     -1.03328     0.72182    -2.31771
O     -1.41165     1.71338    -0.79688
H     -2.12387     2.34649    -0.93600
O     -1.29999    -1.17841    -1.57283
H     -1.36536    -0.99588    -0.61865
O      0.08794    -1.46627    -1.71740
H      0.11129    -2.42977    -1.74045
