 32
-1213.3172117967515
O      2.02211    -2.31684    -0.06037
H      2.80031    -2.07941    -0.60486
O      2.36846    -1.63275     1.14931
H      1.49699    -1.33795     1.48229
O     -0.11713    -2.15834    -1.60769
H      0.62490    -2.28509    -0.97193
O      0.30578    -0.97130    -2.27447
H      0.89840    -1.29233    -2.96360
O     -1.95021    -1.34691     0.28253
H     -1.57645    -1.69827    -0.54388
O     -2.67452    -0.21433    -0.19115
H     -3.24893    -0.01635     0.57859
O     -1.38411     2.05776    -0.60325
H     -1.80646     1.17536    -0.56200
O     -1.60292     2.52745     0.72729
H     -0.99076     1.94563     1.22469
O      1.41022     0.66430    -0.48811
H      0.94010     0.10509    -1.14557
O      1.24575     1.97036    -1.03311
H      0.28966     2.11985    -0.85870
O      4.06183    -1.41028    -1.49336
H      4.96681    -1.44367    -1.16577
O      3.87186    -0.01339    -1.72928
H      3.28722     0.23272    -0.99560
O     -0.00152    -0.62831     1.96182
H     -0.74324    -0.85541     1.36588
O      0.13207     0.78206     1.77150
H      0.75950     0.79901     1.01293
O     -3.92137     0.70031     1.95634
H     -4.67423     0.66322     2.55438
O     -4.20893     1.87773     1.19426
H     -3.30939     2.24700     1.11747
