 36
-1364.9799774626415
O     -2.86300     1.21751    -1.61547
H     -3.26087     1.28512    -0.73369
O     -1.52155     0.91288    -1.21941
H     -1.06689     0.80608    -2.06902
O     -3.17957     1.07388     1.16817
H     -2.21810     0.95381     1.34239
O     -3.67210    -0.22502     1.48266
H     -4.00122    -0.11340     2.37899
O      3.19858    -0.83955     2.73398
H      3.68611    -0.59492     3.52497
O      2.73310     0.43461     2.29384
H      2.63700     0.26237     1.32979
O      2.13854     0.11564    -0.25889
H      1.65003    -0.53650    -0.81925
O      1.37802     1.31928    -0.39185
H      0.46682     1.02743    -0.18241
O     -0.03777     1.55689     2.51390
H      0.90334     1.35526     2.41626
O     -0.59663     0.63783     1.58144
H     -0.19786    -0.22932     1.86051
O     -1.99070    -1.69794    -0.93797
H     -1.92139    -0.72278    -1.00483
O     -1.86656    -1.94141     0.47067
H     -2.56922    -1.37745     0.85408
O      1.47659     2.12829    -2.95686
H      1.58662     1.91071    -2.01242
O      2.26572     1.08710    -3.53297
H      2.51776     1.47674    -4.37426
O      0.72269    -2.19376     1.03101
H     -0.23004    -2.26496     0.81408
O      0.64573    -1.55437     2.31094
H      1.59271    -1.48451     2.54635
O      0.24138    -0.53485    -2.96745
H      1.07039    -0.06841    -3.19700
O      0.71203    -1.41736    -1.93128
H     -0.10629    -1.88605    -1.70980
