 24
-909.9811635870474
O     -2.21937     1.10279     1.31472
H     -2.97532     0.85986     1.85643
O     -2.05296    -0.06623     0.51976
H     -1.26400    -0.49866     0.92637
O      1.31131    -2.70367    -1.41273
H      1.42365    -3.50878    -1.93023
O     -0.04465    -2.82510    -0.98198
H     -0.44752    -2.08678    -1.47088
O      1.04665     1.74657    -0.80568
H      0.13263     1.68196    -1.14129
O      1.53771     0.46072    -1.19946
H      1.51694    -0.02160    -0.35066
O     -0.63890    -0.46333    -2.40063
H      0.31161    -0.25404    -2.34901
O     -1.16473     0.76835    -1.89395
H     -1.67517     0.46195    -1.12473
O      0.04792    -1.37854     1.44478
H      0.19884    -2.14876     0.87355
O      1.25316    -0.62848     1.23469
H      1.04426     0.17377     1.76570
O      0.83458     2.69087     1.73972
H      1.04455     2.36931     0.84421
O      0.24691     1.53628     2.33561
H     -0.66734     1.57327     2.00317
