 36
-1364.9732355830606
O      1.04193     3.26059    -1.06146
H      0.52078     2.56139    -1.51219
O      0.04837     4.25439    -0.82664
H      0.18639     4.86730    -1.55540
O     -0.47336    -1.25777     2.30746
H      0.22634    -1.91631     2.19311
O     -0.25825    -0.48845     1.11862
H     -0.12099     0.42398     1.42787
O     -0.86465    -3.77330    -1.50897
H     -0.95504    -4.65109    -1.12833
O     -0.66160    -2.99776    -0.32779
H     -1.43787    -2.38945    -0.36567
O     -2.89315    -0.39891     0.62708
H     -2.30793    -0.82966     1.26715
O     -2.58069    -1.13058    -0.56028
H     -2.02045    -0.51053    -1.07521
O     -1.85965     2.08522     0.90048
H     -2.35753     1.25283     0.77714
O     -2.14595     2.76602    -0.32371
H     -1.43573     3.42965    -0.31397
O     -0.81645     0.07034    -2.11251
H      0.08607    -0.24187    -1.86410
O     -0.66611     1.48414    -2.14472
H     -1.43349     1.78643    -1.61662
O      1.47209     1.84730     1.31649
H      1.38999     2.57038     0.67491
O      2.39876     0.99877     0.62565
H      2.56180     0.32098     1.29831
O      2.13191    -2.62478     2.42187
H      2.44141    -2.41848     3.30776
O      2.89087    -1.68230     1.65532
H      2.56098    -1.89154     0.75546
O      1.78207    -1.92068    -0.74182
H      0.85074    -2.24328    -0.66856
O      1.63859    -0.64412    -1.37258
H      1.94132    -0.02924    -0.67244
