 36
-1364.9706709596614
O      1.34712    -0.47044    -1.01572
H      0.51866    -0.87996    -1.36804
O      1.14337     0.91940    -1.25835
H      1.15072     1.29550    -0.35313
O      0.78146    -1.11367     2.84275
H      1.67770    -1.04144     2.47348
O      0.39142     0.26235     2.87452
H     -0.53377     0.22323     2.56500
O     -3.34137     0.83939    -2.22572
H     -2.69020     1.55509    -2.24760
O     -2.65888    -0.11770    -3.03131
H     -3.34808    -0.40801    -3.63622
O     -1.49152     0.76510     0.18395
H     -1.35890    -0.20687     0.12818
O     -1.88425     0.98259     1.54993
H     -1.62365     1.91227     1.60782
O     -0.79208     2.40315    -2.37767
H     -0.10077     1.79541    -2.03035
O     -0.67382     3.49845    -1.47892
H     -0.18682     4.14480    -1.99989
O     -0.87135    -1.65174    -1.76393
H     -1.60600    -1.09150    -2.09344
O     -1.22648    -1.83300    -0.38992
H     -0.53207    -2.48244    -0.11830
O      1.09931     2.23992     1.09641
H      0.90821     1.61547     1.82115
O     -0.06963     3.05924     1.10725
H     -0.24342     3.15905     0.15354
O      3.11133    -1.80300     0.43604
H      2.67245    -1.16358    -0.15856
O      3.24046    -1.02519     1.61927
H      4.10582    -1.29897     1.93329
O      0.82278    -3.33573     0.33418
H      1.72601    -2.98394     0.43975
O      0.50602    -3.82418     1.63428
H      0.22028    -3.01449     2.08099
