 24
-909.9797264689215
O     -2.93376    -0.43399     0.47557
H     -2.20293    -1.08060     0.36764
O     -3.28664    -0.23701    -0.89084
H     -4.20160     0.04562    -0.81013
O     -0.63176    -1.73744     0.27126
H      0.30513    -1.62975     0.53564
O     -0.50726    -2.23586    -1.06496
H     -0.37276    -1.39836    -1.54823
O      2.46017     2.33585    -0.71472
H      3.08204     2.63264    -1.38322
O      2.36034     0.95839    -1.05393
H      2.64156     0.53326    -0.22322
O     -0.96167     1.07533    -1.04280
H     -1.81329     0.61067    -1.14875
O     -0.10464     0.28555    -1.88159
H      0.77796     0.56195    -1.55881
O      1.91063    -1.58845     1.04134
H      2.25474    -2.12204     1.76408
O      2.36352    -0.28354     1.39742
H      1.51693     0.17817     1.59210
O      0.14687     1.21731     1.36977
H     -0.27762     1.18885     0.48242
O     -0.83332     0.72638     2.27308
H     -1.58417     0.53048     1.69994
