 36
-1364.9770482861861
O     -0.73206    -0.30322    -1.65327
H     -0.29471     0.33952    -2.24394
O     -1.94802     0.37960    -1.33264
H     -2.18014    -0.01068    -0.46203
O     -0.32347    -3.12767    -0.85668
H     -0.77814    -2.35105    -1.20839
O     -0.38020    -2.85564     0.54310
H      0.55310    -2.91208     0.80316
O      1.59145     0.71840     1.27135
H      2.10727    -0.00177     1.66231
O      0.32574     0.09824     1.09449
H      0.34421    -0.15807     0.15054
O      1.45076     1.66369    -1.84810
H      0.93405     2.17312    -1.18202
O      0.55771     1.65736    -2.95915
H      0.96101     2.30528    -3.54670
O     -1.47829     2.89263    -0.52884
H     -1.55439     2.01739    -0.95948
O     -0.11914     2.89880    -0.07971
H     -0.23555     2.72919     0.87637
O     -2.58974     2.17745     1.78638
H     -2.44921     2.60139     0.91841
O     -1.23227     2.21923     2.25660
H     -0.96462     1.28944     2.21888
O      1.88357    -1.59950    -2.24611
H      1.32907    -2.30551    -1.87949
O      2.13021    -0.82690    -1.07115
H      1.98010     0.08809    -1.39379
O     -2.90296    -0.42156     1.05030
H     -3.10178     0.44179     1.46094
O     -2.32642    -1.12522     2.14795
H     -1.73561    -1.72757     1.67339
O      3.00931    -2.11949     1.94396
H      3.81111    -2.62123     2.11169
O      2.53412    -2.72713     0.74066
H      2.59401    -1.97063     0.12005
