 32
-1213.313701687362
O     -0.06508    -0.50506     2.24269
H     -0.09229     0.35587     1.75984
O      0.77661    -0.18306     3.34441
H      0.14606    -0.20906     4.06777
O      0.01035     0.23005    -1.88539
H     -0.66596     0.13302    -1.17938
O      0.17044     1.64686    -1.97922
H      0.64154     1.87393    -1.15183
O     -1.00366    -2.81656     0.19728
H     -0.60036    -2.82473    -0.69302
O      0.20027    -2.82976     0.97546
H      0.11945    -1.98399     1.46083
O     -2.31601     2.52896    -1.66282
H     -1.40857     2.25142    -1.92430
O     -2.03618     3.18670    -0.42556
H     -2.00374     4.11142    -0.68836
O      3.20413    -0.38174     1.24429
H      2.67152    -0.55446     2.02972
O      2.19330     0.00990     0.31612
H      2.15351    -0.75684    -0.29750
O     -2.74787    -0.33049    -1.22296
H     -2.93705     0.61017    -1.34003
O     -1.87317    -0.24951    -0.09871
H     -1.80843    -1.18770     0.16815
O      0.68826    -2.36824    -1.78851
H      0.54819    -1.41516    -1.94884
O      1.88346    -2.35786    -0.99653
H      1.53304    -2.76600    -0.18000
O     -0.15633     1.83865     0.93138
H     -0.83587     2.38978     0.49024
O      1.06787     2.39885     0.45988
H      1.65621     1.62411     0.56859
