 24
-909.9772817584883
O     -2.34668     1.07363    -0.61016
H     -3.25440     0.75369    -0.58794
O     -1.71210     0.29320     0.41237
H     -1.62794    -0.57318    -0.06138
O     -0.39961     1.15476    -2.42612
H     -1.19935     1.02168    -1.88170
O      0.02612    -0.19598    -2.63023
H      0.74262    -0.27643    -1.97117
O      1.00549    -1.24238     0.39176
H      1.47719    -1.10941     1.23330
O      1.67302    -0.30702    -0.47111
H      1.44352     0.53205    -0.01434
O     -1.70148    -1.73886    -1.24890
H     -1.18571    -1.36642    -1.99382
O     -0.86674    -2.81227    -0.81266
H     -0.15233    -2.32214    -0.37194
O      1.13898    -0.41054     3.61337
H      1.71223    -0.47133     4.38343
O      2.07708    -0.07342     2.59457
H      1.74746     0.79710     2.32630
O      0.59739     1.67436     0.87570
H     -0.30561     1.29642     0.90201
O      0.47769     2.75412    -0.03752
H      0.28544     2.30956    -0.87962
