 20
-758.3002774660656
O      0.04092    -0.95162     2.02822
H     -0.05868    -0.17237     1.42924
O     -0.30856    -2.02185     1.14581
H     -0.91492    -2.51829     1.70334
O      1.37372     1.70775     0.42143
H      1.73084     1.32083     1.23764
O      0.08631     1.07619     0.35644
H      0.09073     0.68818    -0.54120
O      2.60727     0.77365     2.68078
H      3.49989     1.09962     2.82504
O      2.86453    -0.59579     2.34163
H      1.95141    -0.91297     2.32864
O     -0.22096    -0.46183    -1.85544
H     -0.70513    -0.07553    -2.60584
O     -1.33401    -0.95812    -1.09917
H     -0.88156    -1.42356    -0.37418
O     -3.21830     0.60705    -2.78670
H     -2.89699     0.08609    -2.03489
O     -1.97236     0.89472    -3.44156
H     -1.90469     1.84907    -3.32877
