 24
-909.98043212898
O      0.08147    -1.19336    -1.33936
H      0.58445    -1.44333    -0.53444
O     -0.86020    -2.26570    -1.41979
H     -1.37975    -2.09905    -0.62185
O     -1.24616    -1.47019     2.38935
H     -1.99745    -1.92181     2.78536
O     -1.76860    -1.11851     1.10728
H     -1.50161    -0.17529     1.06166
O      2.17543     0.97047    -0.51441
H      1.46670     1.37089     0.02577
O      1.70024     1.18698    -1.84430
H      1.34643     0.31077    -2.06069
O     -1.46794     1.37635    -2.16374
H     -1.12382     0.53474    -1.82576
O     -0.69467     2.33077    -1.45043
H      0.20776     2.18041    -1.79434
O      1.85358    -0.92108     1.67480
H      2.29442    -0.53254     0.90442
O      1.03691    -1.90561     1.03279
H      0.26857    -1.94846     1.63221
O     -0.96198     1.41737     1.01341
H     -0.97141     1.86909     0.13366
O      0.40991     1.58082     1.39396
H      0.57520     0.77077     1.89506
