 32
-1213.308954412788
O      1.82113    -1.00970    -0.37819
H      0.98503    -0.91492    -0.89142
O      1.27654    -1.10153     0.94421
H      0.71479    -0.29616     0.99345
O     -1.07498    -2.03445    -1.75857
H     -0.55334    -2.64125    -1.21361
O     -0.57598    -0.77129    -1.33013
H     -1.14203    -0.55595    -0.54605
O     -0.89055    -3.63689     1.19843
H     -0.66327    -4.30310     1.85471
O      0.31845    -3.52414     0.44713
H      0.67553    -2.66253     0.75951
O     -0.41801     2.03017    -0.37499
H      0.18768     1.94598    -1.14243
O      0.29192     1.36892     0.68696
H      1.17133     1.79822     0.66746
O      2.86755     2.01647     0.56190
H      3.54975     1.82870     1.21522
O      3.28274     1.24542    -0.56273
H      2.80494     0.39519    -0.42433
O      1.31053     1.90245    -2.41384
H      2.20343     1.90356    -2.03224
O      1.31351     0.66222    -3.12031
H      0.48668     0.27662    -2.80078
O     -1.58092    -1.17311     2.04794
H     -1.48718    -2.05726     1.65101
O     -1.94051    -0.39928     0.89649
H     -2.44357     0.33990     1.29494
O     -3.15487     1.81727     1.81517
H     -3.68473     2.45640     2.30182
O     -3.22563     2.29832     0.47660
H     -2.28178     2.42161     0.29838
