 36
-1364.9796606101768
O      0.38868     3.17510    -0.95767
H      0.50314     3.39596    -0.01150
O      1.31126     2.08169    -1.06503
H      0.98833     1.60624    -1.86191
O      0.01016    -3.31811    -0.17831
H      0.03508    -3.35014     0.80035
O     -1.35658    -3.63080    -0.45704
H     -1.74954    -2.74602    -0.50832
O      1.79544     0.68938     1.47587
H      1.83890     0.80237     0.51231
O      2.36644    -0.61013     1.62720
H      1.63241    -1.08590     2.05469
O     -0.11005    -2.97538     2.46898
H     -0.81144    -3.18039     3.09434
O      0.01359    -1.56159     2.58215
H     -0.51627    -1.21020     1.83248
O     -2.67144     1.92104    -0.56546
H     -2.23702     2.44826     0.12419
O     -1.96692     2.23562    -1.76738
H     -1.14652     2.68638    -1.46281
O     -0.83600    -0.13677    -2.34792
H     -1.33947     0.69862    -2.33941
O      0.43310     0.29697    -2.86115
H      1.00457    -0.39317    -2.46458
O     -0.79878     2.59788     1.59921
H     -0.65465     1.67408     1.34532
O      0.52623     3.10460     1.70620
H      1.07638     2.31490     1.87089
O      1.43265    -1.23486    -1.01928
H      0.97953    -2.07610    -0.79068
O      2.80890    -1.55681    -0.84590
H      2.90305    -1.30448     0.08935
O     -0.92699    -0.21991     0.46706
H     -0.42874    -0.33336    -0.37485
O     -2.24824    -0.63178     0.13439
H     -2.56836     0.19402    -0.28393
