 36
-1364.9871387252338
O      0.59127     0.66962     1.54733
H      0.07525    -0.12255     1.81695
O      1.91983     0.31530     1.95211
H      2.41204     0.41074     1.10974
O     -0.34562    -1.46052    -0.52364
H     -0.72999    -0.67392    -0.97111
O     -1.42579    -2.38497    -0.66456
H     -1.79485    -2.29971     0.23780
O     -1.99167    -1.63907     1.81164
H     -2.22254    -0.69778     1.71056
O     -0.71773    -1.53554     2.45647
H     -0.24682    -2.30661     2.08289
O      2.42096    -0.80668    -1.00360
H      2.44844    -1.49647    -0.30965
O      3.23540     0.21690    -0.40187
H      2.98958     0.94161    -1.00919
O     -2.45036     0.97587     1.30953
H     -1.85208     1.67292     0.95318
O     -3.43784     0.92734     0.28395
H     -4.17804     1.39187     0.68824
O      0.35941     2.70248    -0.07485
H      0.49158     1.95898     0.55700
O     -1.06527     2.78284    -0.08441
H     -1.25731     2.51509    -1.00735
O      0.94428     0.66763    -2.60034
H      1.25726    -0.10604    -2.08674
O      1.79257     1.69492    -2.08039
H      1.19547     2.14399    -1.44667
O     -1.76377     0.41284    -1.71868
H     -2.53511     0.63861    -1.16532
O     -1.50133     1.62283    -2.42478
H     -0.60939     1.38717    -2.75753
O      2.26328    -2.44325     1.09923
H      2.14623    -1.79712     1.81200
O      0.97755    -3.07443     1.02178
H      0.57754    -2.62464     0.24499
