 28
-1061.6423389269794
O      2.49945    -1.88122    -1.51222
H      2.04510    -1.74670    -0.65725
O      2.21023    -0.64158    -2.17787
H      2.86881    -0.04665    -1.78910
O      1.19938    -2.01108     1.84835
H      0.25949    -2.24139     1.79168
O      1.26373    -1.10672     0.73549
H      1.77887    -0.35489     1.09652
O      0.23059     1.41552    -0.77844
H     -0.27187     1.37476     0.07629
O     -0.17773     0.20364    -1.43159
H     -0.80477    -1.43480    -0.00299
O     -3.02444     1.64374    -1.08323
H     -3.92373     1.75127    -1.40513
O     -2.85001     0.23438    -1.23836
H     -1.90307     0.21954    -1.47328
O     -2.23934     1.98592     1.50877
H     -2.48128     1.94860     0.56933
O     -1.05593     1.18310     1.52381
H     -1.43299     0.27701     1.57750
O     -2.25976    -1.20292     1.17888
H     -2.89605    -0.91594     0.50528
O     -1.40097    -2.06365     0.42737
H      0.68830    -0.14665    -1.75895
O      2.83243     1.27050    -0.24035
H      1.88091     1.44961    -0.39709
O      2.81001     0.98056     1.15724
H      3.73764     1.07769     1.39143
