 32
-1213.3092255491233
O      0.58341    -1.46909     1.44335
H      1.16195    -1.20426     0.69788
O     -0.01086    -2.62645     0.85139
H      0.17237    -3.29283     1.51918
O      0.20519    -2.29176    -2.93094
H     -0.70522    -2.10892    -2.64215
O      0.29587    -1.54526    -4.14038
H      0.32155    -2.24699    -4.79827
O     -2.40581    -1.83441    -0.09359
H     -1.54398    -2.21477     0.14721
O     -2.18192    -1.44436    -1.45074
H     -1.99534    -0.48500    -1.34957
O     -1.42145     1.06481    -0.97398
H     -1.30448     1.09228     0.00432
O     -0.09603     1.25538    -1.48568
H      0.34022     0.38724    -1.38063
O      1.84727     1.27931     0.91655
H      1.62049     1.42527     1.85691
O      1.32811     2.51317     0.38320
H      0.77908     2.17235    -0.35238
O      2.58729    -0.09313    -1.24396
H      2.51086     0.53062    -0.49637
O      1.43641    -0.87951    -0.94856
H      1.33012    -1.47322    -1.71667
O      0.72208     3.57789     3.04986
H      0.98768     3.69056     2.12568
O      0.67703     2.14996     3.13484
H     -0.23023     1.93928     2.86906
O     -2.47532     0.03879     1.87318
H     -2.60149    -0.55622     1.10734
O     -1.19431     0.59037     1.59442
H     -0.58795    -0.16703     1.70430
