 32
-1213.3060022312711
O      3.35398    -1.87175    -0.85119
H      4.12239    -2.44919    -0.90826
O      3.90436    -0.69056    -0.24754
H      3.14485    -0.09907    -0.39170
O     -1.22100    -1.57533    -0.08765
H     -0.31805    -1.71021     0.27891
O     -1.03770    -2.06042    -1.42415
H     -1.25751    -1.25403    -1.92259
O     -0.58282     1.17056    -1.99402
H     -0.85809     2.10046    -1.88913
O     -1.80188     0.46441    -2.23658
H     -2.29927     0.67175    -1.41764
O      1.53188     0.55852    -0.49604
H      0.72187     0.66410    -1.03830
O      1.25773     1.42760     0.60958
H      0.91006     0.78783     1.27088
O     -0.77932     3.06136     0.18469
H      0.08705     2.60118     0.27931
O     -0.66379     3.67537    -1.09124
H     -1.17597     4.47769    -0.95694
O      1.18462    -2.41097     0.58541
H      1.98472    -2.14582     0.06966
O      1.12087    -3.82038     0.32935
H      0.41880    -3.84848    -0.33379
O     -0.79086     0.61581     3.11111
H     -1.60225     0.53706     2.57821
O      0.06831    -0.20861     2.32697
H      0.40010    -0.84944     2.96491
O     -2.79797     1.29598     0.09063
H     -2.09917     1.94093     0.30362
O     -2.60963     0.31611     1.10899
H     -2.14800    -0.40392     0.62577
