 28
-1061.6458752018707
O     -0.27977    -1.95450    -0.45582
H      0.50931    -1.63994    -0.95330
O     -1.38435    -1.33433    -1.11788
H     -0.97307    -0.59236    -1.60767
O      2.58991     1.44520     1.65347
H      1.91465     1.79247     1.05160
O      2.62926     0.06761     1.29185
H      1.88085    -0.32849     1.78453
O     -1.18055     2.19340     0.37906
H     -1.89371     1.54237     0.45859
O     -0.03650     1.34651     0.36425
H      0.34116     1.17032    -1.72572
O      1.90805    -1.07828    -1.69176
H      2.03441    -1.04324    -2.64454
O      2.27395     0.25756    -1.32079
H      2.57756     0.12706    -0.39136
O     -3.00450    -0.22951     0.69983
H     -2.48868    -0.73569     0.03717
O     -3.08179    -1.18521     1.75083
H     -3.91744    -0.94651     2.15994
O      0.30892     1.13914    -3.61387
H     -0.37283     1.73304    -3.94240
O     -0.26022     0.75687    -2.37152
H     -0.16804     0.79070     1.16771
O     -0.65084    -0.23130     2.38189
H     -1.50339    -0.69828     2.27606
O      0.32569    -1.21887     2.03288
H      0.02635    -1.52974     1.15056
