 32
-1213.3125727856152
O      1.99288    -0.63775     2.96920
H      2.30495    -0.36988     3.83911
O      0.61035    -0.88267     3.19231
H      0.21374    -0.06985     2.80951
O     -0.45362     0.05445    -3.14802
H     -0.99945     0.52055    -2.48619
O     -0.07475    -1.15762    -2.49374
H     -0.90142    -1.66225    -2.45049
O     -2.32754    -2.13329    -1.07642
H     -1.69359    -1.87340    -0.35995
O     -3.16793    -0.97873    -1.12526
H     -4.02265    -1.34132    -0.87446
O      1.84788     1.18261    -2.16937
H      1.04285     0.84661    -2.60906
O      1.32057     2.05355    -1.15698
H      1.79960     1.70510    -0.37987
O      2.00795    -0.78270    -0.28929
H      2.27018    -0.47360    -1.17104
O      2.42735     0.34254     0.50461
H      2.24588     0.00612     1.40116
O     -1.85820     1.08152    -0.07905
H     -2.35998     0.34039    -0.48403
O     -1.33195     1.74451    -1.22196
H     -0.39716     1.92700    -0.98686
O     -0.48300     1.31137     2.15391
H     -0.99515     1.15402     1.32385
O      0.44798     2.30784     1.74767
H      0.02272     3.11372     2.05292
O     -0.46776    -1.34783     0.54570
H      0.40884    -1.14645     0.12492
O     -0.22547    -2.57689     1.22816
H      0.07248    -2.21252     2.07773
