 28
-1061.645566581249
O      1.38994     0.40724    -2.27661
H      1.63014    -0.52438    -2.41777
O      2.27863     0.70005    -1.19245
H      1.68388     1.12665    -0.53681
O     -0.12756    -1.97337     1.48473
H     -1.01493    -2.05037     1.08451
O      0.53889    -1.25692     0.43279
H      1.30398    -1.81874     0.22596
O     -0.23767     0.44992     2.65655
H     -0.30044    -0.48627     2.38904
O     -1.58484     0.92310     2.53868
H      0.74735     1.26373     1.46809
O     -1.22823     0.21352    -1.63739
H     -0.29239     0.43200    -1.82035
O     -1.79815     1.47396    -1.26610
H     -2.51254     1.13096    -0.70011
O     -3.00047    -0.16402     0.51955
H     -2.50973     0.06125     1.33262
O     -2.37836    -1.38823     0.11742
H     -1.87284    -1.04602    -0.64293
O     -0.37349     2.57802     0.75277
H     -0.79276     2.26252    -0.07018
O      0.87851     1.88116     0.72199
H     -1.39904     1.76790     2.09279
O      3.11344    -1.79438    -0.73727
H      3.08161    -0.81926    -0.74533
O      2.44444    -2.04809    -1.97849
H      3.15407    -2.42480    -2.51087
