 24
-909.9758260452166
O     -1.56902    -0.40260     0.48210
H     -2.40399    -0.31648    -0.02806
O     -1.51312    -1.80651     0.73474
H     -0.73650    -1.82406     1.30651
O      0.19070    -0.76604    -1.44846
H     -0.39672    -0.65821    -0.67630
O     -0.07479     0.43573    -2.18996
H      0.45041     1.08161    -1.67633
O      2.86359    -0.64624    -1.14208
H      1.91065    -0.70506    -1.35928
O      2.83816    -0.06104     0.15995
H      2.34111    -0.70474     0.68592
O     -3.37231     0.11235    -1.34029
H     -3.97836     0.08106    -2.08750
O     -2.58767     1.26980    -1.60350
H     -1.76226     0.88052    -1.95832
O      0.90021    -0.89999     2.21515
H      0.70545     0.04764     2.12188
O      0.71482    -1.10000     3.61500
H      1.61588    -1.27657     3.90256
O      1.14533     1.91052    -0.28827
H      1.92018     1.32221    -0.13985
O      0.40328     1.65100     0.91009
H     -0.45101     1.37526     0.55301
