 32
-1213.3093373772435
O      2.95535    -1.38278     0.14740
H      2.86507    -0.74895     0.88356
O      3.09050    -0.47228    -0.94888
H      2.32960    -0.71394    -1.50910
O      0.16410     1.34197     2.43479
H     -0.38513     1.56338     1.65298
O     -0.34727     0.06407     2.80548
H      0.05152    -0.51481     2.12633
O     -2.58373     0.98572    -1.87427
H     -1.96452     0.47636    -2.42129
O     -3.55948    -0.00792    -1.57917
H     -4.37254     0.44305    -1.82209
O     -0.88427     1.90439     0.05339
H     -1.64602     1.61332    -0.47093
O      0.17730     1.52126    -0.83191
H      0.98727     1.69270    -0.29725
O      2.60477     0.87396     1.50447
H      1.75301     1.09706     1.94091
O      2.57755     1.75812     0.37124
H      3.03207     1.18099    -0.27272
O     -0.19718    -0.61149    -2.31310
H      0.05142     0.07905    -1.66510
O      1.09765    -1.11193    -2.63863
H      0.90984    -2.04850    -2.75872
O      0.52843    -2.53910     0.06041
H      1.47878    -2.33672     0.05673
O      0.07237    -1.29782     0.59617
H     -0.89359    -1.30348     0.42002
O     -2.79049     0.02201     1.59431
H     -2.00314    -0.04789     2.16919
O     -2.57884    -1.07764     0.70069
H     -3.12107    -0.79220    -0.05144
