 32
-1213.3042330832197
O      1.21483    -2.92325    -2.79619
H      0.24830    -2.84373    -2.68834
O      1.67990    -2.11872    -1.70999
H      1.69294    -1.22744    -2.08944
O     -2.10778    -0.62328     2.75177
H     -3.04366    -0.76397     2.91973
O     -2.16231    -0.13171     1.41470
H     -1.79448     0.77886     1.51404
O     -2.25841    -1.43505    -2.28857
H     -1.65113    -0.71236    -2.07901
O     -1.40850    -2.57447    -2.16134
H     -1.42357    -2.71872    -1.19450
O     -0.83704     2.22675     1.52728
H      0.07059     1.87150     1.61455
O     -0.81409     2.81292     0.21458
H     -0.87289     2.01445    -0.34464
O      1.40401     0.80406     1.50939
H      2.30558     1.12580     1.65485
O      1.12777     0.02409     2.68254
H      0.76708    -0.76838     2.26101
O     -0.36116     0.54267    -1.03867
H     -0.14456    -0.18973    -0.41524
O      0.88458     0.74062    -1.69615
H      1.29729     1.42474    -1.13865
O      2.45370     3.44399     1.05532
H      2.88157     4.29330     0.89704
O      1.84444     3.19071    -0.21226
H      0.89901     3.33475     0.00284
O      0.20815    -1.61811     0.39989
H      0.71655    -2.06778    -0.31543
O     -1.01762    -2.36721     0.45353
H     -1.59979    -1.66382     0.80561
