 32
-1213.3102205364207
O      3.15174    -1.74076    -0.21516
H      2.99240    -1.81390     0.73643
O      2.14015    -2.59877    -0.75275
H      1.36950    -2.00975    -0.79931
O      1.85515    -0.36092     3.22277
H      0.97683    -0.31220     3.62119
O      1.51347    -0.84365     1.92700
H      1.66931    -0.04147     1.36770
O     -1.51001     1.71217    -2.86833
H     -0.95930     0.96399    -2.55200
O     -2.82702     1.23617    -2.61767
H     -3.11625     0.94819    -3.48927
O     -1.20326     3.24804    -0.46509
H     -1.24734     3.12792    -1.42164
O     -0.51469     2.05037    -0.11029
H     -1.23155     1.49725     0.26947
O      1.97270     1.17532     0.27966
H      1.10720     1.59373     0.06876
O      2.39375     0.68805    -1.00024
H      2.85230    -0.14667    -0.75228
O      0.14653    -0.21485    -2.06127
H      1.01233     0.18370    -1.81565
O     -0.10031    -0.95772    -0.85964
H     -1.06719    -0.82068    -0.74483
O     -2.68102    -0.42929    -0.54607
H     -2.84734     0.28968    -1.19155
O     -2.40987     0.30700     0.64734
H     -2.10291    -0.40819     1.24228
O     -1.05047    -1.61496     1.98067
H     -0.09165    -1.46153     1.81843
O     -1.14223    -1.32738     3.38049
H     -1.31019    -2.20561     3.73695
