 20
-758.3095311603014
O     -0.75020    -1.51442     0.50830
H     -1.53983    -0.93409     0.48614
O     -0.22272    -1.17991     1.79615
H      0.71424    -1.38456     1.66439
O      2.49792    -0.59171     1.11675
H      2.10193     0.29788     1.00900
O      2.55707    -1.00161    -0.25642
H      3.49808    -1.17732    -0.35446
O      0.94324     1.51559     0.57944
H      0.59102     1.28074    -0.29871
O     -0.21042     1.47892     1.42047
H     -0.19190     0.55027     1.71955
O      0.47282     0.75400    -1.94610
H      1.25378     0.66840    -2.50395
O     -0.18342    -0.49845    -2.13271
H     -0.03106    -0.93071    -1.27489
O     -2.83194     0.59239    -1.17148
H     -2.11574     0.09810    -1.59352
O     -2.59997     0.34462     0.21646
H     -2.10765     1.12966     0.50352
