 40
-1516.6399778172047
O      3.43010     2.15781    -0.50485
H      2.74135     1.95785    -1.15559
O      3.59962     0.87335     0.09498
H      3.03653     0.93105     0.89414
O      1.29278     1.29597    -1.88292
H      0.53116     1.84506    -2.14577
O      0.84858     0.98863    -0.56016
H      0.29184     0.18513    -0.71782
O     -0.78763     2.20561     1.08454
H     -0.10972     1.88869     0.44514
O     -0.67628     1.24647     2.14507
H     -1.47380     0.70684     1.97534
O      1.88646     0.40955     2.10871
H      0.94742     0.69024     2.19642
O      1.78773    -1.01776     2.18074
H      2.38240    -1.30987     1.45892
O     -1.06903     2.49145    -1.99743
H     -1.32934     3.34444    -2.35908
O     -2.00380     1.58571    -2.57655
H     -2.57239     1.39369    -1.81251
O     -1.47670    -1.71441     2.80974
H     -2.27029    -2.16929     2.51933
O     -0.62047    -1.99182     1.70699
H      0.24913    -1.65528     2.03535
O     -3.13531     1.41225     0.14939
H     -2.39396     1.99033     0.41020
O     -2.83689     0.28428     0.97844
H     -2.96997    -0.45806     0.35601
O      2.84372    -1.36003    -1.04633
H      3.05757    -0.42018    -0.81120
O      3.27090    -2.00430     0.15969
H      4.22576    -2.05810     0.04662
O      0.28654    -2.36253    -1.19050
H      1.16781    -1.94506    -1.23230
O     -0.50803    -1.24588    -0.79522
H     -0.71764    -1.50495     0.13164
O     -2.92419    -1.42552    -2.00608
H     -1.95959    -1.41365    -1.86980
O     -3.33662    -1.77517    -0.67782
H     -3.89725    -2.54283    -0.82911
