 32
-1213.3165587616907
O      1.74916    -1.82949     0.47152
H      0.82385    -1.57748     0.32796
O      2.42954    -0.68495    -0.02912
H      2.20524    -0.00781     0.65897
O     -0.75364    -2.80723    -2.15135
H     -1.26528    -3.37598    -2.73514
O      0.39576    -3.59780    -1.84255
H      1.08576    -2.99063    -2.16747
O     -1.27990    -1.13368    -0.15460
H     -1.12144    -1.85972    -0.79050
O     -2.38929    -0.49533    -0.79076
H     -1.98461     0.37555    -0.96360
O     -0.86952     1.65383    -0.98602
H     -1.05047     2.19349    -0.18662
O      0.53844     1.43907    -0.87804
H      0.70953     0.80568    -1.60881
O      1.54431     0.91795     1.86411
H      0.67260     0.70076     2.24358
O      1.40766     2.27405     1.45172
H      1.17725     2.11912     0.51731
O      1.84179    -1.37524    -2.52372
H      2.15903    -1.07382    -1.64010
O      0.83873    -0.39163    -2.81394
H      0.03721    -0.93223    -2.79537
O     -0.88351     3.22175     2.48596
H      0.02865     3.00454     2.21566
O     -1.60117     2.75809     1.33253
H     -1.92678     1.90382     1.67083
O     -1.89978     0.20371     2.05059
H     -1.70367    -0.38503     1.29225
O     -0.75696     0.00496     2.88682
H     -1.09907     0.30559     3.73444
