 16
-606.642538516427
O     -1.22223     0.24759    -1.18507
H     -0.98321     1.10968    -0.80079
O     -0.19093     0.02235    -2.14631
H      0.59654    -0.11060    -1.58218
O      1.97817    -0.22219    -0.58474
H      1.79523     0.39028     0.14269
O      2.04777    -1.47620     0.09521
H      1.11960    -1.75491     0.10623
O     -0.71295     2.23994     0.55331
H     -0.26693     3.09229     0.56517
O      0.31509     1.39395     1.06956
H     -0.21256     0.60786     1.31774
O     -0.74932    -1.72563     0.46655
H     -1.01087    -1.08641    -0.23878
O     -0.93447    -0.89217     1.61468
H     -1.84237    -1.08594     1.86821
