 24
-909.9781208185058
O     -1.82361    -1.43733    -0.38210
H     -2.19797    -0.56918    -0.64188
O     -2.05667    -1.41861     1.02769
H     -2.32715    -2.32909     1.18209
O      0.78094    -1.28030    -1.00865
H     -0.14830    -1.40006    -0.71599
O      0.59722    -0.70256    -2.30136
H      0.60256     0.23775    -2.05364
O      3.10366    -0.10331    -0.64134
H      2.33232    -0.70707    -0.74229
O      3.28095    -0.10648     0.77306
H      4.11251    -0.57949     0.87449
O     -2.44279     1.17560    -0.80020
H     -1.57200     1.57126    -0.57265
O     -3.24386     1.59165     0.30420
H     -3.82829     2.22576    -0.12219
O      0.07973    -0.03177     1.89475
H     -0.71493    -0.56252     1.69582
O      1.07260    -1.05066     2.01059
H      1.82643    -0.62703     1.56454
O     -0.00517     1.88815     0.06901
H      0.18237     1.15700     0.70260
O      0.86440     1.65077    -1.03786
H      1.72012     1.45919    -0.62898
