 36
-1364.9743551872343
O      2.54360     0.27097    -0.31353
H      1.87425    -0.39616    -0.06055
O      1.80239     1.14747    -1.16377
H      1.66382     1.92868    -0.59055
O      0.65439     0.39652     2.73794
H      1.56250     0.73694     2.58884
O     -0.14048     1.46582     2.23269
H     -0.67729     1.03076     1.55041
O     -2.60692    -2.10112    -2.44459
H     -1.73262    -1.67515    -2.46009
O     -3.29519    -1.27555    -1.49412
H     -3.11692    -1.79578    -0.68134
O     -2.23953     1.21471    -1.50299
H     -2.80943     0.42588    -1.42960
O     -1.85498     1.41764    -0.14371
H     -1.54398     2.33102    -0.19871
O     -0.28214    -0.77821    -2.16723
H     -0.61705     0.13206    -2.18385
O      0.94083    -0.71615    -2.89841
H      1.42477    -0.06637    -2.35718
O      0.73094    -1.56884     0.47608
H      0.20257    -1.66392    -0.33187
O     -0.25969    -1.77317     1.48965
H      0.05426    -1.13064     2.15547
O      1.09651     3.11996     0.60717
H      0.70930     2.60831     1.35259
O     -0.09586     3.59131    -0.01676
H     -0.08148     4.52568     0.21092
O      3.08680     1.33884     2.03797
H      3.12785     1.02419     1.10837
O      3.94708     0.39779     2.67641
H      4.62305     0.98081     3.03465
O     -1.68220    -3.94304    -0.55360
H     -2.09116    -3.73534    -1.40512
O     -2.35366    -2.97988     0.26601
H     -1.61238    -2.66209     0.80979
