 36
-1364.9715961600382
O      3.30758     1.24368    -0.85309
H      3.53375     0.80330    -0.01388
O      1.92819     0.87791    -0.91796
H      1.90188     0.17260    -1.59759
O     -0.07491     2.49354    -2.17966
H      0.68456     2.49851    -1.58147
O     -0.69858     1.29204    -1.73418
H     -1.60327     1.56479    -1.50736
O      3.17674     1.30716     2.36732
H      2.45031     1.75727     1.91219
O      3.29124     0.11551     1.59440
H      2.73174    -0.50915     2.09072
O      1.21449    -1.35015    -2.26033
H      1.18880    -1.95082    -1.50002
O     -0.18952    -1.20051    -2.50136
H     -0.31717    -0.24735    -2.30683
O     -3.48700     0.77495    -1.55268
H     -3.86856     0.49244    -0.71156
O     -3.09762    -0.50780    -2.06310
H     -2.90854    -0.28897    -2.98098
O     -2.29557    -0.37696     1.27430
H     -2.05253    -1.11196     0.66094
O     -3.70995    -0.25792     1.08409
H     -4.03779    -0.55123     1.94026
O      0.28169    -1.29805     2.48588
H      0.34727    -0.37555     2.14729
O      1.61219    -1.52649     2.92854
H      1.51755    -1.49365     3.88562
O      0.48611     1.01424     1.26054
H      0.93058     0.95806     0.37884
O     -0.50384     2.00840     1.01587
H     -1.29417     1.45089     1.03678
O     -1.28204    -2.29932    -0.29696
H     -1.16489    -1.99619    -1.21769
O      0.09657    -2.52098     0.05313
H      0.10722    -2.22177     0.98081
