 16
-606.635815231992
O     -1.12698     0.86289     0.88135
H     -1.26601     1.07009    -0.06776
O     -0.15236     1.84346     1.23160
H     -0.56452     2.22653     2.01005
O      0.15694    -0.85587     2.61482
H     -0.31190    -0.27808     1.98826
O      0.91866    -1.66886     1.71153
H      0.47555    -2.52190     1.77242
O     -0.80727     0.40008    -2.48262
H     -0.15426     0.04830    -1.84647
O     -1.39086     1.46370    -1.71924
H     -0.97678     2.24334    -2.10317
O      1.15071    -1.67931    -1.50272
H      1.86711    -1.39828    -2.07668
O      1.00065    -0.51023    -0.69811
H      1.02212    -0.89421     0.20693
