 16
-606.635698369218
O     -1.73859    -0.45480     1.06044
H     -1.18315    -0.77928     1.78008
O     -1.81242     0.95556     1.29485
H     -1.12729     1.28832     0.69496
O      0.54116     1.80431    -0.41462
H      1.12712     1.09069    -0.71495
O      1.31800     2.34173     0.66461
H      1.50279     3.23107     0.34298
O      1.87414    -0.69680    -0.35571
H      1.07670    -1.10049    -0.72761
O      1.62107    -0.84441     1.05348
H      1.77759     0.05766     1.36019
O     -0.79247    -0.81333    -1.39725
H     -1.24457    -0.69257    -0.53369
O     -1.05818    -2.20385    -1.62417
H     -1.56724    -2.16029    -2.43789
