 36
-1364.9705234479711
O      2.54804     0.65137     0.98105
H      2.47543     1.16892     0.16563
O      1.43498    -0.23256     0.81935
H      1.89869    -1.09833     0.72837
O     -1.12701    -1.13742     2.19268
H     -1.93462    -0.74129     1.81581
O     -0.61459    -0.04469     2.95666
H      0.26038     0.06680     2.55739
O      1.43861     3.60811    -0.00252
H      1.40366     4.44838    -0.47207
O      1.77442     2.68594    -1.04081
H      0.89557     2.32845    -1.28605
O      0.06482     0.30763    -1.37198
H      0.47921     0.06860    -0.50911
O     -0.62063     1.52282    -1.12466
H     -0.80539     1.48031    -0.17255
O      0.57802    -1.32004    -3.46275
H      0.35786    -0.74058    -2.71066
O     -0.02963    -2.55163    -3.07110
H      0.73767    -3.06958    -2.79954
O     -2.87094     0.02420     0.53652
H     -2.58691    -0.41300    -0.28046
O     -3.59982     1.14153     0.05057
H     -3.08642     1.86287     0.43865
O     -0.19849     3.09456     2.17305
H      0.35314     3.14152     1.37627
O     -1.32723     2.34567     1.69177
H     -1.44047     1.69405     2.40211
O      2.65986    -2.53058     0.29811
H      3.57714    -2.62503     0.02202
O      1.95315    -2.85927    -0.90119
H      1.04247    -2.87422    -0.53817
O     -0.47379    -2.65723     0.03231
H     -0.69090    -2.21681     0.87513
O     -1.46161    -2.09961    -0.84178
H     -1.04687    -2.28939    -1.70934
