 32
-1213.3034872561761
O      2.22097    -1.09175     0.67709
H      2.90592    -0.85838     0.01043
O      1.74453     0.20454     1.07960
H      0.89018    -0.04888     1.47186
O      0.14871    -2.02778    -0.68989
H      0.91427    -1.82570    -0.10508
O      0.75755    -1.89207    -1.98184
H      0.76793    -0.92239    -2.07018
O     -1.57860     0.04732    -0.61565
H     -1.11543    -0.82449    -0.66185
O     -2.81025    -0.17134    -1.30447
H     -3.42650     0.06342    -0.59946
O     -0.50222     2.24038     0.32172
H     -0.92867     1.43523    -0.04325
O     -0.80520     2.00124     1.69665
H     -0.32727     2.71130     2.13770
O      1.88173     1.60011    -1.54181
H      1.81736     1.36852    -0.60086
O      0.84103     0.80076    -2.10048
H      0.07891     1.39531    -2.14105
O      3.85020    -0.52720    -1.34909
H      3.54031     0.22875    -1.87342
O      3.76831    -1.62308    -2.26130
H      2.88232    -1.97462    -2.08494
O     -1.52964    -0.77332     2.83663
H     -2.18439    -0.49014     2.18453
O     -0.41034    -0.99988     1.98317
H     -0.31035    -1.95955     1.99408
O     -3.85676     0.49507     1.59353
H     -4.46216     0.53475     2.34062
O     -3.48809     1.87039     1.44396
H     -2.52744     1.83929     1.62821
