 32
-1213.3108704845408
O      2.28279    -1.81678     1.24874
H      1.82466    -2.43910     0.65246
O      3.13505    -1.11245     0.34884
H      2.60853    -0.31950     0.13220
O      0.96854    -2.70468    -1.89008
H      0.58107    -3.44994    -2.35806
O      0.60303    -2.98211    -0.53840
H     -0.02758    -2.24639    -0.36266
O     -0.75437    -0.01346    -2.89252
H     -1.23095    -0.31537    -2.10025
O      0.61389    -0.11053    -2.49306
H      0.72587    -1.06662    -2.32405
O     -0.59957     3.36032    -1.28285
H     -0.19475     3.10280    -0.44580
O     -1.64979     2.38983    -1.37495
H     -1.41072     1.89134    -2.17114
O      0.60830     1.39179     0.46002
H      0.95918     1.18975     1.35169
O      1.71998     1.07508    -0.37834
H      1.27562     0.81766    -1.22011
O     -0.78399    -0.82854     0.00609
H     -0.36273     0.04866     0.12477
O     -2.06588    -0.50759    -0.53828
H     -2.44247    -0.06873     0.26169
O      1.09930     0.01443     2.71616
H      1.57447    -0.72921     2.26187
O     -0.19806    -0.54231     2.90745
H     -0.15543    -0.82275     3.82659
O     -2.38352     0.71572     1.75995
H     -1.59774     0.40558     2.24227
O     -2.11567     2.10386     1.58699
H     -2.19305     2.19180     0.62572
