 16
-606.6372284263235
O     -2.72844     0.35878     1.34926
H     -2.88105    -0.03463     2.21336
O     -1.37767    -0.05239     1.09920
H     -0.89017     0.78383     1.18033
O      0.61494     2.06014     0.52942
H      0.96165     1.60231    -0.26629
O      1.24731     1.25976     1.54215
H      2.06985     1.74074     1.67782
O      1.65468     0.34106    -1.23658
H      0.90449    -0.22849    -1.49050
O      2.36675    -0.50599    -0.32811
H      1.90300    -0.29707     0.49368
O     -0.75674    -0.88975    -1.59371
H     -1.13537    -0.78884    -0.70559
O     -0.81932    -2.30587    -1.77855
H     -1.44715    -2.36786    -2.50515
