 32
-1213.304196223672
O      0.99226     0.54910     0.18672
H      0.55379     0.29751     1.03076
O      2.10106     1.31663     0.68099
H      2.78037     0.96924     0.07276
O      0.80865    -2.45938     0.63414
H      0.33199    -1.93211     1.29351
O      0.06172    -2.20223    -0.55540
H     -0.87577    -2.23036    -0.26267
O     -0.94562     1.72768    -1.18546
H     -0.14444     1.34493    -0.75241
O     -1.72264     0.56608    -1.49532
H     -1.24951     0.17853    -2.25574
O     -0.42476     2.65050     1.86718
H     -0.10533     3.55058     2.00416
O     -1.77920     2.83789     1.45867
H     -1.70625     2.64579     0.50897
O      3.36120    -0.00452    -1.28072
H      2.61593    -0.10473    -1.89228
O      3.55870    -1.33620    -0.81511
H      2.86954    -1.43448    -0.14251
O     -0.37453    -0.85774    -3.33110
H     -0.02532    -0.65791    -4.20383
O      0.78107    -0.63350    -2.52644
H      0.56471    -1.22771    -1.77010
O     -0.48895    -0.25423     2.23804
H     -1.43130    -0.16121     2.01431
O     -0.35481     0.46133     3.46640
H     -0.32003     1.36674     3.11519
O     -2.75869    -0.71767     0.58422
H     -2.38537    -0.25951    -0.20409
O     -2.44080    -2.07197     0.28532
H     -3.29110    -2.42833     0.01255
