 40
-1516.6344879127764
O     -1.49343     2.01667     2.57509
H     -0.56137     2.28561     2.63159
O     -1.84014     2.57458     1.29530
H     -1.82864     1.76173     0.75947
O      2.39209    -1.78785    -0.54424
H      2.29251    -1.51644     0.38676
O      1.00463    -1.76692    -0.90750
H      1.01948    -1.71701    -1.87606
O      1.43924     0.75948    -2.80675
H      0.49942     0.87865    -3.02905
O      1.69181    -0.52625    -3.38198
H      2.63793    -0.59926    -3.23383
O     -1.86893    -0.47698     1.80384
H     -1.74841     0.30030     2.39338
O     -1.39006     0.09478     0.58579
H     -0.41946     0.11224     0.74521
O     -1.56538     1.96326    -1.82472
H     -2.31579     2.41194    -2.22715
O     -1.27478     0.93810    -2.76035
H     -1.56809     0.14088    -2.28040
O      1.30810     1.01446    -0.13764
H      1.55116     0.77393    -1.05554
O      0.99065     2.40625    -0.28165
H      0.10226     2.34868    -0.66453
O      1.12745     2.75242     2.37224
H      1.20211     2.71906     1.39454
O      2.34859     2.13695     2.76591
H      2.54310     2.61608     3.57561
O     -0.27294    -3.23017     0.87526
H      0.16083    -2.83590     0.09426
O     -1.64456    -2.90695     0.61090
H     -1.78152    -2.13230     1.18700
O      0.86174    -0.13295     2.48233
H      1.54611     0.55243     2.56746
O      1.59902    -1.26961     2.01103
H      0.90062    -1.94210     2.00974
O     -1.38609    -2.86634    -2.74423
H     -2.19532    -3.26870    -3.07264
O     -1.90621    -1.86353    -1.87519
H     -1.83528    -2.30167    -0.99456
