 32
-1213.3099571909372
O      1.11906    -0.64993     1.27930
H      1.63534     0.18501     1.25112
O      1.30046    -1.06389     2.62651
H      0.71294    -0.44722     3.09502
O     -0.27450     0.38991    -3.95977
H     -0.03531     0.36501    -4.88927
O     -0.07405    -0.97373    -3.59117
H     -0.89259    -1.15398    -3.06671
O     -1.38019    -2.77297    -1.58543
H     -0.44017    -2.66147    -1.35867
O     -1.81989    -1.41244    -1.65900
H     -1.84521    -1.12350    -0.71299
O     -1.91777     0.74505     0.99305
H     -2.09642     0.82469     1.94338
O     -1.56631    -0.64217     0.90793
H     -0.60592    -0.61227     1.08648
O      0.25602     1.10255    -0.77117
H      0.68551     0.21944    -0.82252
O      0.89415     1.77710    -1.85248
H      0.45402     1.32975    -2.59178
O      1.51747    -1.10430    -1.44491
H      1.13864    -1.16090    -2.34464
O      1.26216    -2.43738    -0.97772
H      1.34737    -2.28197    -0.02738
O     -0.35469     1.22051     3.74671
H     -0.10234     1.68821     2.92067
O     -1.77494     1.19723     3.65142
H     -2.03056     2.01698     4.08549
O      1.94989     1.85733     1.34104
H      2.26998     2.40462     0.61535
O      0.59162     2.28701     1.47731
H      0.20942     1.92414     0.63787
