 40
-1516.6441853180604
O      2.97937     0.02060     0.99471
H      2.30410    -0.03936     1.69183
O      2.98718    -1.30807     0.46117
H      2.40244    -1.19123    -0.31580
O     -1.07919     0.38150    -0.75602
H     -1.18506     1.27154    -0.36396
O     -1.76578     0.48328    -2.01256
H     -1.00934     0.64607    -2.60900
O     -2.59258     1.37913     2.51073
H     -1.84088     0.82441     2.80711
O     -3.16278     0.55778     1.49481
H     -3.98041     0.27091     1.91038
O      0.76209     0.43836     2.59503
H      0.44795     1.28099     2.20490
O     -0.44622    -0.13195     3.08572
H     -0.38411    -1.02933     2.70624
O      0.12719     2.75982     1.33060
H      0.69617     2.61988     0.54030
O     -1.13883     2.99429     0.70350
H     -1.73116     2.91237     1.46320
O      1.62781     1.73456    -0.57339
H      2.37111     1.23524    -0.17039
O      2.25644     2.66038    -1.46093
H      2.03208     2.23818    -2.30016
O      0.20162     0.97758    -3.83168
H      0.14844     0.61882    -4.72216
O      1.52898     0.63673    -3.44004
H      1.37459    -0.08181    -2.79921
O     -0.10853    -2.39775     1.69637
H     -0.91115    -2.39304     1.12951
O      0.80807    -3.12496     0.88759
H      1.64418    -2.68459     1.09800
O      0.42623    -2.26056    -1.61487
H      0.50835    -2.70753    -0.74892
O      1.07597    -1.03176    -1.30524
H      0.33794    -0.48211    -0.93629
O     -2.63427    -2.54468    -0.97435
H     -1.88054    -2.25441    -1.50948
O     -2.31758    -2.00402     0.30349
H     -2.48239    -1.04740     0.21290
