 20
-758.312001889239
O     -0.33812    -1.39027     0.87853
H     -0.03737    -0.80734     1.61118
O     -1.74979    -1.16311     0.90444
H     -1.79258    -0.30272     0.43351
O      1.19711     1.65096    -0.70350
H      1.87949     2.29489    -0.49612
O      1.78170     0.43835    -0.23226
H      1.44381    -0.19824    -0.89766
O      1.54949     1.03873     2.42594
H      1.65384     0.75530     1.50211
O      0.35024     0.33650     2.77279
H     -0.28456     1.04983     2.89269
O     -0.43117    -1.65424    -1.72918
H     -0.38435    -1.69142    -0.74581
O      0.92232    -1.32738    -2.03555
H      1.28246    -2.17712    -2.30902
O     -1.77758     0.80280    -1.78754
H     -1.46486    -0.11252    -1.86837
O     -1.41824     1.10114    -0.43877
H     -0.47666     1.33754    -0.52766
