 16
-606.636812240501
O     -0.65478     0.28125    -0.91447
H     -1.07590     1.15284    -0.82154
O      0.71865     0.66157    -0.71663
H      0.93095     0.13213     0.07546
O      1.24228    -1.10780     1.28601
H      0.59309    -1.81417     1.09154
O      0.83409    -0.69491     2.59028
H      1.63393    -0.87416     3.09304
O     -1.31217     2.92361    -1.04089
H     -1.54027     3.21790    -1.92884
O     -0.02612     3.53304    -0.84869
H      0.54107     2.74734    -0.86373
O     -0.19309    -2.44598    -0.89110
H     -0.52508    -1.53592    -0.93877
O     -0.64392    -2.79243     0.42300
H     -0.75411    -3.74369     0.33808
