 36
-1364.9705592785388
O      0.35608    -0.81563     1.18957
H     -0.30570    -1.51147     1.39937
O      0.37750    -0.05017     2.39654
H      0.91780     0.71633     2.11676
O      0.87464     3.23213     1.77477
H      0.82024     3.25399     0.81005
O      1.80916     2.16128     1.92237
H      2.46079     2.53181     2.52950
O     -2.72334    -0.87399    -0.42617
H     -2.75289    -0.19221     0.28336
O     -1.44183    -0.58245    -0.99059
H     -1.65511    -0.27067    -1.88690
O     -1.45116     0.06918    -3.55461
H     -1.81019     0.65788    -4.22362
O     -0.11545     0.54084    -3.43435
H      0.32405    -0.25715    -3.06177
O      1.24731    -1.21697    -2.06179
H      1.99297    -0.81934    -1.55842
O      1.05172    -2.45198    -1.37624
H      0.14597    -2.34671    -1.05106
O     -2.43926     1.10931     1.28831
H     -1.67104     1.61291     0.97880
O     -2.14154     0.84617     2.66093
H     -1.24024     0.46181     2.62017
O      1.02353     1.96987    -1.35142
H      0.61538     1.63493    -2.17017
O     -0.01069     1.72700    -0.40286
H      0.00207     0.75628    -0.29412
O      3.18240    -0.40819     0.72553
H      2.41983    -1.00033     0.79055
O      3.04946     0.07609    -0.60880
H      2.74679     0.98686    -0.48981
O     -1.30292    -2.83151     1.69079
H     -1.18650    -3.71962     2.03834
O     -1.42934    -3.07804     0.29418
H     -2.09510    -2.40307     0.06347
