 24
-909.9772349398801
O     -1.80556    -0.78475     1.25383
H     -1.58409    -1.42538     0.55949
O     -2.43802     0.25438     0.50806
H     -1.69252     0.86255     0.36269
O      0.08974    -1.84825    -1.43534
H      0.87915    -1.76434    -0.86460
O     -0.79933    -2.52909    -0.55489
H     -1.09565    -3.26079    -1.10206
O      0.90763     2.04951     0.36350
H      1.37751     1.25517     0.05602
O     -0.39673     1.87458    -0.18156
H     -0.24341     1.81017    -1.14496
O     -1.14555     0.34681    -2.43974
H     -0.69227    -0.43167    -2.06786
O     -0.02737     1.18036    -2.73463
H     -0.30573     1.58588    -3.56031
O      2.56721    -0.04901    -0.14504
H      3.43135    -0.06361     0.27713
O      1.93721    -1.19174     0.42524
H      1.44710    -0.80394     1.19876
O      0.49969    -0.17618     2.40074
H     -0.43557    -0.31235     2.12450
O      0.46051     1.17034     2.88095
H      0.53063     1.65968     2.04160
