 40
-1516.640106366256
O      1.25440     1.88943     0.05964
H      1.22986     2.25380     0.96065
O      1.92042     2.91242    -0.68893
H      1.36236     2.89698    -1.47701
O     -0.08057    -2.15068     2.76531
H     -0.67394    -2.53336     2.09910
O     -0.93901    -1.19749     3.39520
H     -0.28532    -0.55851     3.71085
O     -1.59624     1.69879     2.34733
H     -1.37436     0.85547     1.91171
O     -1.55666     2.60544     1.24852
H     -2.49056     2.77640     1.08586
O      1.12856     2.04834     2.95142
H      0.20771     2.23475     3.17771
O      1.24855     0.70461     3.44571
H      1.79966     0.30332     2.74647
O     -0.84483    -0.40772     0.36035
H      0.06739    -0.64202     0.09440
O     -1.64495    -0.90304    -0.71536
H     -1.72586    -0.12511    -1.29608
O      1.13043    -0.80738    -1.72715
H      0.92435     0.08400    -2.05492
O      0.38468    -1.64616    -2.62530
H      0.27688    -2.45132    -2.07761
O     -1.23591     1.85225    -1.55859
H     -0.81747     2.05204    -0.70339
O     -0.09434     1.87182    -2.43616
H     -0.51478     1.66248    -3.28601
O      2.47389    -0.42478     1.34741
H      2.26609     0.15674     0.60027
O      1.81210    -1.63551     0.97808
H      1.23998    -1.79419     1.75611
O     -0.80571    -3.29255     0.15409
H     -1.24032    -2.52623    -0.26560
O      0.26388    -3.57403    -0.76026
H      1.02893    -3.29033    -0.23808
O     -0.95110     0.56475    -4.70987
H     -1.67862     0.66304    -5.33131
O     -1.58915    -0.18024    -3.66901
H     -0.86809    -0.78951    -3.41010
