 40
-1516.6411930798063
O      1.87638     1.74872    -2.66932
H      0.92582     1.78146    -2.85421
O      1.93658     0.59973    -1.82918
H      1.59362     0.96404    -0.98080
O     -0.31052    -3.29910     1.88112
H     -0.58873    -2.53365     2.40042
O     -1.20987    -3.18092     0.76777
H     -1.58153    -4.06821     0.73482
O      0.65074     1.93192     0.06004
H     -0.20718     2.10927    -0.39555
O      0.36794     2.26867     1.42474
H      0.74603     1.50637     1.90215
O      2.00195    -2.10579    -0.59073
H      2.93587    -1.88747    -0.82668
O      2.02894    -2.09834     0.83744
H      1.39306    -2.80598     1.02452
O     -3.91273     1.05770    -0.68464
H     -4.75764     1.38888    -0.36570
O     -3.44536     0.24604     0.39382
H     -3.02600     0.92801     0.98582
O     -0.21866    -0.74844    -0.33856
H      0.54225    -1.29051    -0.66731
O     -1.26258    -0.96153    -1.28217
H     -2.02368    -0.88092    -0.68806
O     -1.09807     1.53055    -2.37509
H     -1.09175     0.61958    -2.02020
O     -1.59243     2.29517    -1.27136
H     -2.47729     1.90132    -1.10624
O      3.91509    -0.94653    -2.74805
H      3.19933    -0.32353    -2.48816
O      4.39374    -1.34526    -1.45755
H      5.11568    -0.72987    -1.29583
O     -0.46122    -0.45096     2.22405
H     -0.47713    -0.45696     1.24016
O      0.91859    -0.17508     2.45780
H      1.36114    -0.76996     1.81879
O     -2.22834     1.41151     3.07337
H     -1.62169     0.67189     2.87935
O     -2.25287     2.09866     1.82239
H     -1.30237     2.32968     1.69356
