 36
-1364.9740028349458
O      1.84612     1.75118     0.27888
H      1.37040     1.47655    -0.52295
O      3.16119     1.26888    -0.01292
H      3.10359     0.36046     0.34739
O     -2.57813    -0.29749    -0.48075
H     -1.86766    -0.89473    -0.80364
O     -1.94925     0.97823    -0.62838
H     -1.51008     1.06078     0.23792
O      1.75200    -1.19910     2.01415
H      2.18565    -1.89983     2.51083
O      2.48640    -1.20452     0.79220
H      1.81748    -1.57051     0.17434
O      3.22692     2.56232    -2.46415
H      3.44399     2.10585    -1.63647
O      3.31362     1.46105    -3.37467
H      3.71730     1.87787    -4.14072
O     -2.34466    -2.87373     1.40703
H     -2.84592    -2.14071     1.78733
O     -0.99674    -2.46463     1.56459
H     -1.02821    -1.55498     1.92476
O     -0.60033     1.05293     1.65777
H      0.36523     0.94943     1.64107
O     -1.02607     0.03243     2.56406
H     -1.90929     0.38313     2.78716
O      0.94281     0.62769    -2.36842
H      1.69682     0.98144    -2.88913
O     -0.20288     1.03871    -3.11371
H     -0.82829     1.18942    -2.38999
O     -3.82714    -0.33300     1.86934
H     -3.47463    -0.19936     0.96051
O     -3.53679     0.93114     2.45321
H     -4.35117     1.10864     2.93180
O     -0.44073    -1.47208    -1.51810
H      0.15572    -0.82883    -1.95297
O      0.45297    -2.16912    -0.64728
H     -0.15102    -2.44967     0.07458
