 16
-606.6381280491876
O     -1.75492     0.43265    -0.47619
H     -0.91835     0.36174    -0.97365
O     -1.67330     1.79481    -0.03705
H     -2.59164     1.97061     0.18761
O      0.39077    -1.20441    -1.97511
H      0.57579    -1.55518    -1.08987
O      0.56933     0.19318    -1.71817
H      0.80543     0.53838    -2.58523
O      0.19048     0.98698     1.72343
H     -0.46082     1.40628     1.12737
O      1.43695     1.36542     1.13020
H      1.57896     0.65729     0.48855
O     -0.17071    -1.65692     1.25472
H      0.01102    -0.74551     1.56175
O      1.06872    -1.97016     0.60840
H      1.25841    -2.83734     0.97888
