 40
-1516.6483070093004
O      1.29999     2.54145     0.48867
H      1.46085     2.18644    -0.40522
O      2.47424     2.12491     1.19456
H      2.08595     1.91496     2.06717
O     -2.35619     1.26463    -0.30553
H     -2.28924     1.93430     0.39858
O     -0.97048     0.93125    -0.40704
H     -0.87861     0.20459     0.25425
O     -1.38745     1.93233     2.94148
H     -1.81907     1.10142     2.68138
O     -1.47278     2.73130     1.76397
H     -0.54566     2.76580     1.48154
O      1.16125     1.18358     3.32425
H      0.21517     1.43764     3.30579
O      1.08824    -0.24090     3.25293
H      1.53288    -0.44698     2.41431
O     -1.03030    -1.09271     1.35238
H     -1.32352    -1.99766     1.12974
O     -1.46636    -0.90359     2.69583
H     -0.59572    -0.84044     3.12295
O      0.35421    -3.32320    -0.60029
H      0.68813    -2.55489    -0.11422
O     -1.02174    -3.34163    -0.23009
H     -1.43825    -2.96512    -1.02894
O      1.56953     1.83646    -2.11614
H      1.68102     2.57311    -2.72321
O      0.37478     1.25709    -2.62011
H     -0.15965     1.16637    -1.79087
O     -1.93576    -1.98288    -2.38883
H     -1.20724    -1.81769    -3.02343
O     -2.82389    -0.90199    -2.67166
H     -2.70026    -0.33906    -1.89691
O      2.73452    -0.56348     0.66832
H      2.86159     0.40495     0.72657
O      1.60245    -0.64655    -0.19185
H      1.97602    -0.74826    -1.08351
O      1.41244    -1.78267    -2.85047
H      0.98519    -2.52766    -2.40162
O      0.33995    -1.26923    -3.64238
H      0.38199    -0.32279    -3.41515
