 40
-1516.641648109639
O      1.05750     0.67195     2.74572
H      1.54803     1.39918     2.33570
O      0.65822    -0.01600     1.56643
H     -0.30809     0.15975     1.52424
O      2.16604     0.04228    -0.94732
H      2.46400    -0.86212    -0.71770
O      0.78713    -0.15286    -1.26779
H      0.37460     0.43761    -0.60668
O     -1.02733     1.48665    -3.11963
H     -0.66310     1.94342    -2.34764
O     -2.09704     0.76292    -2.51814
H     -1.76887    -0.15244    -2.49243
O     -1.97471     0.13061     1.20653
H     -2.71504     0.69441     0.90724
O     -2.51449    -1.17076     0.96388
H     -1.89809    -1.73287     1.46749
O     -2.96213     2.30934    -0.57222
H     -2.70047     1.71079    -1.31249
O     -3.96470     1.50426     0.05250
H     -4.69724     2.12237     0.12066
O     -0.44592     2.74100     0.82960
H     -1.36059     2.92469     0.57487
O      0.10250     2.51944    -0.47527
H      1.01733     2.80674    -0.35430
O      2.68444     2.05503     0.69156
H      2.59508     1.26063     0.11938
O      3.89571     2.61841     0.19589
H      4.44397     2.58583     0.98488
O     -0.48843    -2.94108     1.46919
H     -0.43687    -2.99191     0.49104
O      0.87305    -2.65942     1.80559
H      0.89490    -1.67862     1.76334
O      2.34574    -3.35946    -0.30590
H      1.86817    -3.30430     0.54981
O      3.25977    -2.27158    -0.13535
H      4.09912    -2.68009    -0.36326
O     -1.76033    -1.91281    -1.52168
H     -2.13749    -1.64613    -0.66175
O     -0.49060    -2.44817    -1.12976
H      0.08165    -1.65106    -1.21572
