 24
-909.9773790338854
O     -2.04721    -0.78501     0.53294
H     -1.96424    -0.24545    -0.28106
O     -2.51434     0.19571     1.45644
H     -3.31050    -0.22512     1.79146
O      0.78857    -2.72464     0.62558
H      0.80279    -2.46196    -0.32361
O      0.48065    -1.48500     1.26330
H     -0.44620    -1.32752     0.99230
O      2.37288    -0.06839     0.17791
H      1.77054    -0.67423     0.67816
O      1.60136     1.13554     0.14728
H      1.26134     1.21192     1.05276
O     -0.14442     0.76610    -1.83342
H      0.51446     1.03469    -1.15981
O     -1.39750     1.10488    -1.23219
H     -1.16452     1.84102    -0.63814
O      0.76705    -1.79412    -1.87785
H      0.34147    -0.92358    -2.00126
O      2.12461    -1.50471    -2.20637
H      2.41715    -1.05495    -1.39556
O     -0.80466     2.87244     0.71192
H     -0.99771     3.73278     1.09700
O     -0.57595     2.05982     1.85778
H     -1.31089     1.42778     1.77032
