 20
-758.31124165647
O      0.63860    -2.22399    -0.07432
H      0.98688    -1.45624    -0.55689
O     -0.17856    -1.61624     0.91962
H     -0.88380    -1.16924     0.42001
O      0.66709     0.77835     2.77960
H      0.63386     0.36645     3.64925
O      1.58086    -0.05820     2.06768
H      0.95847    -0.73344     1.70570
O      1.07697     1.43491    -1.28829
H      0.45806     1.54957    -0.53635
O      1.91115     0.35491    -0.85442
H      2.03567     0.52876     0.09080
O     -1.30474    -1.14040    -2.25112
H     -1.44560    -1.46604    -3.14648
O     -1.37198     0.27386    -2.41896
H     -0.43560     0.52464    -2.35282
O     -1.78985     0.69157     0.37505
H     -1.90161     0.84246    -0.57511
O     -0.72835     1.60535     0.67063
H     -0.38536     1.25450     1.51743
