 36
-1364.9798624740815
O      0.79037     2.48924    -1.31154
H     -0.08375     2.09206    -1.52584
O      0.60697     2.95506     0.02327
H      1.11107     2.30110     0.54957
O     -2.23580    -2.09375     0.29304
H     -1.57305    -1.41869     0.54349
O     -2.30096    -1.96882    -1.13060
H     -2.64633    -1.06217    -1.22542
O     -1.91341     2.13259     1.75541
H     -1.40825     1.33267     1.55408
O     -1.99041     2.75823     0.47902
H     -1.07073     3.07646     0.35461
O      2.69924     0.79673    -2.02805
H      2.05042     1.49171    -1.77989
O      3.81136     1.20405    -1.24025
H      4.54696     0.88879    -1.77264
O     -1.33825     1.09837    -2.06883
H     -0.89177     0.24402    -2.23471
O     -2.38966     0.72112    -1.17434
H     -2.41773     1.50777    -0.57726
O      2.42539     0.11346     0.75955
H      3.03875     0.58583     0.17157
O      1.94066     1.18850     1.58467
H      1.38731     0.65532     2.17315
O      0.28994    -0.78302     2.31712
H     -0.08122    -1.68462     2.43538
O     -0.26434    -0.43521     1.04254
H      0.48075    -0.63247     0.43460
O      1.04941    -1.40263    -1.43428
H      1.72665    -0.84333    -1.83762
O     -0.02391    -1.22275    -2.35552
H     -0.69298    -1.83183    -1.99309
O     -0.55584    -4.03791     1.60199
H     -1.34493    -3.78224     1.09883
O     -0.74804    -3.23111     2.76950
H     -0.60107    -3.86338     3.47798
