 28
-1061.6482232616447
O     -0.43054    -1.94183    -2.13370
H     -1.32128    -1.66059    -2.39525
O      0.29818    -0.81566    -2.64018
H      1.06944    -0.78225    -2.04222
O      0.05185     1.46349     0.01751
H     -0.61253     1.33524    -0.69785
O      0.94392     2.42082    -0.55912
H      1.72274     1.84855    -0.63452
O      1.33889    -0.77978     1.62740
H      0.51942    -1.23952     1.34593
O      1.26603    -0.83046     3.04635
H     -0.74600    -1.85152    -0.39261
O     -0.27464     1.52331     2.62339
H     -0.09313     1.55290     1.65460
O     -1.56576     0.91580     2.61218
H     -2.14731     1.65994     2.79926
O     -2.42981    -0.10975    -1.97297
H     -2.38497    -0.26016    -1.00967
O     -1.52702     0.99668    -2.10499
H     -0.79430     0.55323    -2.57302
O     -1.96274    -0.75613     0.56653
H     -1.71587    -0.19623     1.33353
O     -0.92036    -1.73373     0.56122
H      0.92916     0.05826     3.22042
O      2.47819    -0.77518    -1.13025
H      3.38541    -1.02593    -1.32811
O      2.66011     0.36126    -0.29960
H      2.22297     0.02564     0.51904
