 20
-758.305516005282
O     -0.73425    -2.70738     0.82864
H     -0.75274    -3.66215     0.94093
O     -2.03396    -2.46181     0.26720
H     -2.06648    -1.48960     0.37506
O      0.28878    -0.46486    -1.58030
H      0.51312     0.44564    -1.34308
O      0.97822    -1.19298    -0.55699
H      0.26032    -1.71940    -0.14942
O     -0.44676     2.47562     0.24606
H     -0.77096     3.32919    -0.05934
O      0.73170     2.31134    -0.55312
H      1.38966     2.12031     0.13670
O      2.02151     0.49566     1.24682
H      1.74689    -0.17995     0.58821
O      3.25577     0.96084     0.69160
H      3.86911     0.72896     1.39581
O     -2.43657     0.24639    -1.03128
H     -1.70774    -0.18373    -1.50300
O     -1.92256     0.20421     0.29779
H     -1.35798     0.99873     0.31852
