 16
-606.6361368251163
O     -2.22577    -0.15388    -0.36335
H     -1.65842    -0.13669     0.42329
O     -3.37132     0.56433     0.09838
H     -3.33313     1.35679    -0.44675
O      0.99862    -1.43976    -1.80654
H      1.06732    -1.67344    -0.87051
O      0.34571    -0.16862    -1.73776
H     -0.57542    -0.40547    -1.53886
O      1.89144     1.30671     0.82906
H      2.32044     2.08658     1.19110
O      0.96009     1.89222    -0.08755
H      0.90543     1.17656    -0.74653
O      0.07984    -0.57155     1.36757
H      0.77402     0.11586     1.31027
O      0.89067    -1.75564     1.29762
H      0.45814    -2.30227     1.95957
