 32
-1213.3042920658463
O      3.23025    -1.85285     0.79095
H      4.09946    -1.80343     1.19759
O      2.46160    -1.02914     1.65939
H      2.20209    -0.28630     1.06811
O      0.44159    -1.33753    -1.06040
H     -0.25612    -1.34697    -0.37640
O      0.90729    -2.68024    -1.13108
H      1.61464    -2.66355    -0.47226
O     -0.73879     0.97388     2.44674
H     -0.57313     0.01509     2.51996
O     -2.10973     1.00131     2.02670
H     -2.16063     1.89969     1.66739
O     -0.39524     2.94551    -0.10642
H     -0.18395     3.50807    -0.85803
O     -1.81786     2.93761    -0.09496
H     -2.01642     2.10767    -0.57988
O      2.04922     1.48477    -0.88132
H      1.43407     1.17025    -1.55683
O      1.37729     1.02752     0.28953
H      0.69084     1.71886     0.40941
O     -2.46660     0.57809    -1.16821
H     -1.96081     0.27931    -1.94521
O     -2.16481    -0.44593    -0.21418
H     -2.18072     0.05831     0.63000
O     -0.52086    -2.42606     1.47900
H     -1.45104    -2.49611     1.71881
O     -0.00800    -1.66957     2.57978
H      0.93086    -1.61411     2.31675
O      0.25427     0.91100    -3.22066
H      0.76317     0.72437    -4.01481
O     -0.64442    -0.19697    -3.16848
H     -0.17610    -0.78445    -2.53241
