 20
-758.3128043469538
O     -1.06383    -2.55182    -0.69301
H     -0.52424    -1.84652    -1.11035
O     -0.31821    -2.76935     0.50085
H      0.25140    -3.50945     0.26705
O      1.69662    -0.20116     0.83145
H      1.71492     0.76659     0.89257
O      0.52903    -0.50187     1.60247
H      0.24860    -1.33900     1.18373
O      2.20691     2.80094    -0.35177
H      2.19167     3.76153    -0.30197
O      0.91281     2.48221     0.16206
H      0.51054     2.01439    -0.59608
O     -0.27269     0.68145    -1.50683
H     -1.04889     0.39814    -0.97643
O      0.49803    -0.52780    -1.52748
H      1.07673    -0.39443    -0.74989
O     -2.21816     0.51393     1.27493
H     -1.25526     0.50627     1.39942
O     -2.33512    -0.03997    -0.03690
H     -2.50378    -0.98158     0.12076
