 24
-909.9812950760427
O     -2.14795    -0.56989     0.84989
H     -2.30558    -0.39471    -0.09551
O     -1.08190    -1.52260     0.77869
H     -0.38986    -1.09750     1.32589
O      0.42799     0.17264    -1.53416
H      0.77417     0.40768    -0.64596
O      0.35798    -1.25648    -1.49599
H     -0.25552    -1.42025    -0.75232
O      2.75552    -1.76893    -0.10315
H      2.15921    -1.64502    -0.86313
O      3.95862    -1.15562    -0.55377
H      4.54779    -1.91361    -0.57985
O     -2.18638     0.27324    -1.72974
H     -1.22671     0.25256    -1.94327
O     -2.39016     1.67596    -1.55771
H     -3.02296     1.86969    -2.25589
O      1.18063     0.80763     0.96641
H      0.49483     1.28559     1.48518
O      1.19243    -0.44423     1.67576
H      1.89303    -0.90931     1.18316
O     -1.23580     2.62154     1.16380
H     -1.34055     2.16620     0.31858
O     -1.07179     1.56483     2.10431
H     -1.68281     0.86783     1.79489
