 32
-1213.3110472854232
O      5.05624    -1.13432     1.36772
H      5.56687    -1.12890     2.18214
O      3.92129    -0.36871     1.75747
H      3.96773     0.38497     1.13910
O     -1.28909     0.12639    -1.87823
H     -0.54666     0.76710    -1.86786
O     -0.64055    -1.11827    -1.58807
H     -1.37534    -1.59550    -1.17206
O     -3.40519    -1.56142    -0.70768
H     -3.72696    -1.62614     0.20619
O     -3.75468    -0.19537    -0.97016
H     -2.88687     0.12103    -1.28937
O      0.69873     1.93022    -1.81426
H      1.58177     1.52181    -1.92829
O      0.84754     2.45397    -0.49155
H      0.29630     1.83491     0.02292
O      3.02732     0.82504    -1.29965
H      2.67736    -0.02048    -0.95127
O      3.29666     1.55017    -0.09330
H      2.47965     2.08046    -0.02926
O      1.50248    -1.26560     0.87583
H      2.39967    -1.13048     1.23807
O      1.77414    -1.39721    -0.52434
H      0.86950    -1.32536    -0.89378
O     -1.52124    -0.24604     1.25574
H     -2.18424     0.39434     1.54738
O     -0.40184     0.59240     0.96121
H      0.31880    -0.07206     1.01597
O     -4.51808    -0.97519     1.70233
H     -5.47045    -1.07873     1.80495
O     -4.39326     0.43897     1.50911
H     -4.27284     0.44879     0.53678
