 36
-1364.9749479534435
O      0.29552     2.77611    -0.91995
H     -0.09852     1.99170    -1.35943
O      0.80602     2.19776     0.27394
H      1.72015     1.94775     0.05189
O     -2.28308    -1.75057     0.84037
H     -1.40731    -1.32699     0.81414
O     -2.56128    -1.96932    -0.54150
H     -2.56842    -1.05643    -0.89629
O     -2.65364     1.91916     1.90283
H     -2.07538     1.17958     2.14088
O     -2.15016     2.22153     0.59997
H     -1.72724     3.08397     0.71287
O      2.58393     2.54469    -2.65048
H      1.78603     2.98307    -2.31703
O      2.09615     1.20612    -2.76543
H      2.13138     1.04668    -3.71490
O     -0.87755     0.65071    -1.97069
H     -0.47816    -0.22456    -1.75538
O     -2.19969     0.52049    -1.45468
H     -2.16426     1.13643    -0.69435
O      2.71000    -0.46554    -0.72081
H      2.55656     0.17501    -1.44004
O      2.96720     0.37128     0.41089
H      2.38811    -0.03373     1.08970
O      1.12020    -0.43207     2.19336
H      0.80917    -1.32812     2.43007
O     -0.10264     0.13515     1.73035
H      0.21125     0.88124     1.18116
O      0.62097    -1.97054    -0.15730
H      1.52991    -1.64296    -0.30888
O      0.05576    -1.77562    -1.46711
H     -0.73678    -2.32862    -1.38436
O     -0.42907    -3.81031     2.04848
H     -1.20408    -3.44201     1.59322
O     -0.07600    -2.71808     2.89114
H     -0.29484    -3.03720     3.77401
