 16
-606.6373180946156
O     -2.09284    -0.44898     2.09092
H     -2.93308    -0.07208     2.36852
O     -1.79384     0.36099     0.95025
H     -1.00234     0.83604     1.24546
O      0.78842     1.71207     1.01252
H      0.99745     1.48989     0.07919
O      1.66113     0.77304     1.66611
H      2.41044     1.33586     1.87965
O      1.45226     0.50762    -1.26164
H      0.72627    -0.12442    -1.41042
O      2.46874    -0.34910    -0.73105
H      2.24458    -0.30464     0.20748
O     -0.76725    -1.09833    -1.31708
H     -1.37161    -0.70972    -0.66497
O     -1.60748    -1.21700    -2.46896
H     -1.65208    -2.17342    -2.56104
