 32
-1213.3076766763763
O      3.03614    -0.48410     0.09007
H      2.26924    -1.05703     0.29962
O      3.63949    -0.40932     1.38322
H      4.47435     0.02412     1.18712
O      0.28195    -2.57118    -0.09600
H     -0.10206    -3.30164     0.39646
O      0.84585    -1.76863     0.93918
H      0.11340    -1.11006     1.08225
O     -0.46849    -0.59888    -1.69918
H     -0.24040    -1.42487    -1.23632
O      0.82512    -0.16064    -2.12876
H      0.87687     0.69155    -1.65556
O      1.85889     2.00308     2.80475
H      1.97464     2.22062     1.85899
O      1.54474     0.61841     2.72279
H      2.34314     0.24664     2.29997
O     -2.48268    -0.74002    -3.37111
H     -1.61901    -0.61430    -2.91912
O     -3.06187    -1.68204    -2.45293
H     -3.55297    -2.25501    -3.04883
O      0.94604     2.00492    -0.51831
H      0.33078     1.78135     0.20989
O      2.21178     2.07167     0.13909
H      2.53698     1.16187    -0.00176
O     -0.67388     1.20047     1.46044
H      0.00277     0.99820     2.14493
O     -1.15958    -0.11217     1.16329
H     -1.88993     0.07300     0.52360
O     -3.12578     0.26629    -0.61919
H     -3.28226    -0.40660    -1.31589
O     -4.38217     0.29242     0.06035
H     -4.64907     1.20135    -0.10435
