 32
-1213.3057739446194
O      0.72667    -1.63128     2.32403
H      1.00436    -1.92936     3.19602
O     -0.32896    -2.52734     1.97216
H     -1.10143    -1.98736     2.25229
O      1.13414    -1.38548    -2.95697
H      0.44735    -1.82614    -2.42340
O      2.32951    -2.04187    -2.52166
H      2.41660    -1.70562    -1.61823
O     -0.38951    -1.98802    -0.81469
H     -0.40073    -2.24083     0.12772
O     -0.68507    -0.59338    -0.72841
H      0.19324    -0.17580    -0.82384
O      1.58541     1.63226    -2.98260
H      1.61627     0.68067    -3.16984
O      1.21694     1.59987    -1.61044
H      0.29643     1.92889    -1.64106
O      2.00269     0.85147     0.81970
H      1.94220     1.36658    -0.00552
O      1.94985    -0.48338     0.28897
H      1.48992    -0.93916     1.01814
O     -1.36505     2.16577    -1.65501
H     -1.99080     2.21399    -2.38636
O     -2.13262     1.61034    -0.59178
H     -1.80916     0.68352    -0.59238
O     -0.22195     1.27308     2.24843
H      0.64938     1.12481     1.82145
O     -0.66523     2.48168     1.62937
H     -1.28885     2.14545     0.96862
O     -2.04188    -0.58743     2.64102
H     -1.39020     0.14767     2.54126
O     -2.94426    -0.29989     1.57774
H     -3.72226    -0.00270     2.05910
