 32
-1213.3087808090947
O      2.21718     2.10702     0.98907
H      2.24576     2.41126     1.89840
O      1.22587     1.08941     1.07059
H      1.74385     0.28867     0.85193
O     -1.16906    -2.26177    -0.51694
H     -0.53171    -2.62527     0.13641
O     -0.29267    -1.61148    -1.43870
H     -0.46611    -0.67028    -1.21518
O     -0.73896     0.85179    -0.68767
H     -0.09973     1.07906     0.02532
O     -0.59523     1.95656    -1.58354
H     -1.36796     2.45939    -1.27014
O     -2.24914    -1.18496     2.19690
H     -2.88361    -1.88952     2.36076
O     -2.70140    -0.62952     0.96423
H     -2.18009    -1.16323     0.32072
O      2.65540     1.65110    -2.15923
H      2.53177     1.90105    -1.23462
O      1.64693     0.65743    -2.33890
H      0.81191     1.15052    -2.20164
O      2.22769    -2.22090    -0.77185
H      1.35298    -2.06942    -1.18343
O      2.62319    -0.88406    -0.43484
H      2.48032    -0.39795    -1.27680
O      0.41451    -1.60328     2.13538
H     -0.55150    -1.48251     2.15466
O      0.53267    -2.83984     1.42693
H      1.38604    -2.71866     0.97931
O     -2.43331     2.36990     1.11632
H     -2.74785     1.45519     1.05464
O     -2.71863     2.80979    -0.21011
H     -3.21482     3.61756    -0.05773
