 40
-1516.6439571416568
O      4.00963     1.96258    -0.74238
H      3.68186     1.81262     0.15601
O      2.90233     2.66191    -1.29806
H      3.30557     3.46291    -1.65046
O      1.57354     1.53609     1.52710
H      1.01166     1.23622     2.26370
O      2.74009     0.71563     1.61128
H      2.46860    -0.05154     1.06861
O     -0.92484     1.77219     2.74644
H     -1.08912     2.08313     1.83329
O     -0.87032     0.36652     2.50789
H     -1.82384     0.15188     2.48611
O     -3.47478    -0.15924     2.48132
H     -4.09633    -0.16187     3.21748
O     -3.87754    -1.27587     1.69625
H     -3.11046    -1.86472     1.80365
O     -0.17524    -2.47107     1.78008
H     -0.13625    -1.52163     1.99258
O     -1.44979    -2.61173     1.15902
H     -1.38059    -1.98682     0.41195
O     -2.85335    -0.35142    -0.97037
H     -3.27890    -0.58757    -0.13477
O     -1.49645    -0.59274    -0.60746
H     -1.14253    -1.01646    -1.44214
O      1.92001     0.36664    -2.18340
H      2.35539     1.22535    -1.99866
O      0.60679     0.79189    -2.58762
H      0.33850     1.38393    -1.84395
O     -1.21126     1.99627     0.09670
H     -1.38104     1.08447    -0.22251
O      0.04970     2.29825    -0.49403
H      0.66845     2.09765     0.23875
O      1.33354    -2.51025    -0.43837
H      0.86360    -2.73328     0.38738
O      1.89434    -1.25187    -0.06255
H      1.92176    -0.76545    -0.91575
O     -0.53294    -1.98883    -2.58888
H      0.34667    -2.30747    -2.33382
O     -0.32164    -1.42024    -3.88443
H      0.00714    -0.54025    -3.62507
