 24
-909.9769355065837
O     -1.73868    -0.46684     0.89842
H     -0.96798    -0.46676     1.50503
O     -1.71548     0.86903     0.38027
H     -1.42114     0.72284    -0.53791
O     -0.45090     0.58085    -2.01370
H      0.40148     0.19799    -1.69211
O     -0.06474     1.93980    -2.19070
H     -0.16301     2.04752    -3.14201
O      1.71629    -0.22699    -0.78414
H      1.72877     0.36478    -0.01156
O      1.63660    -1.52720    -0.20109
H      0.75398    -1.82626    -0.49939
O     -0.87556    -2.17639    -0.94716
H     -1.42912    -1.68946    -0.30016
O     -1.69973    -2.18215    -2.10489
H     -1.37598    -1.39588    -2.55999
O      1.65177    -1.13767     2.49249
H      1.71154    -1.40430     1.55899
O      0.38381    -0.46484     2.49462
H      0.63020     0.45135     2.69751
O      1.13998     2.19918     0.71349
H      0.71199     2.55058    -0.07563
O      0.12353     2.29459     1.71256
H     -0.63256     1.84244     1.28307
