 40
-1516.6365523047039
O      3.24684     0.28918    -0.47463
H      2.88616     0.95320    -1.08373
O      3.16344    -0.91123    -1.24581
H      2.20221    -1.08776    -1.26122
O     -1.41416    -0.09399     0.05213
H     -1.48205     0.42733     0.88814
O     -2.71911    -0.65496    -0.11888
H     -2.88395    -0.29988    -1.01279
O     -1.22505     1.29283     2.33309
H     -0.39949     0.96748     2.71928
O     -0.78107     2.56099     1.83323
H     -1.53342     2.80855     1.26902
O      1.27013     0.32097     1.34507
H      2.09199     0.25118     0.81023
O      1.54289    -0.47925     2.50211
H      1.89648    -1.30490     2.10695
O     -1.92139     3.16888    -1.23327
H     -0.97178     3.10147    -0.97142
O     -2.58713     3.32419     0.01252
H     -2.91520     4.22553    -0.05365
O      0.59034     2.62736    -0.64750
H      0.60899     2.11856     0.18329
O      1.06608     1.68739    -1.60853
H      0.23990     1.33768    -1.99683
O     -2.53350     0.78707    -2.36105
H     -2.45910     1.68604    -1.99340
O     -1.17152     0.54888    -2.71525
H     -1.09098    -0.40857    -2.55650
O      2.12833    -2.80676     1.34471
H      1.25334    -3.03996     0.99047
O      3.03270    -3.41703     0.42561
H      3.43585    -2.63737     0.01865
O     -0.58238    -1.95006    -1.94180
H     -0.47288    -2.89295    -1.76110
O      0.48140    -1.38201    -1.19036
H     -0.03749    -0.86477    -0.52433
O     -0.79845    -2.63617     2.50866
H     -0.19956    -1.90016     2.70320
O     -0.76492    -2.68319     1.07728
H     -1.53720    -2.15473     0.81233
