 36
-1364.970440247556
O      1.24132     2.99743     0.26818
H      0.96336     2.45023    -0.49149
O      1.92981     2.04174     1.08070
H      1.21260     1.74066     1.67436
O     -0.99658    -0.74775    -0.60435
H     -0.91365    -0.11196     0.15239
O     -1.77587    -1.78290     0.00033
H     -2.66456    -1.39613    -0.03344
O      0.10340    -2.70753     1.76099
H     -0.58178    -2.33659     1.16794
O      0.87227    -1.55601     2.12892
H      1.37200    -1.36283     1.30499
O      2.09831    -1.02793    -0.16806
H      2.47902    -1.91588    -0.28772
O      3.23055    -0.22347     0.20188
H      2.78325     0.60428     0.46457
O     -0.11921     0.91100     2.39801
H      0.14233    -0.03496     2.46272
O     -1.22356     0.82590     1.48469
H     -1.38373     1.77801     1.27605
O     -1.53153     3.34749     0.68314
H     -0.62061     3.68362     0.69690
O     -1.81595     3.38264    -0.71919
H     -2.20886     2.51068    -0.85567
O      1.26943     0.67504    -2.43264
H      1.32133    -0.02719    -1.77327
O      0.32008     1.52273    -1.78966
H     -0.10262     1.97118    -2.53069
O     -2.65513     0.78946    -1.99713
H     -1.93040     0.18645    -1.72802
O     -3.76610     0.16124    -1.34404
H     -4.32082    -0.05768    -2.09886
O      1.16757    -4.25434    -0.91756
H      1.47914    -5.15085    -1.07076
O      1.96532    -3.88319     0.20958
H      1.26737    -3.65673     0.85843
