 32
-1213.3045499356845
O      1.36704     3.23965    -1.07720
H      2.24849     2.84132    -1.12779
O      1.33473     3.75512     0.25818
H      0.94477     3.02244     0.75525
O     -0.39633    -3.11223     0.62220
H     -0.86193    -3.94528     0.51784
O     -0.91658    -2.35979    -0.47532
H     -0.09691    -2.18191    -0.99973
O     -0.50091     1.35001    -1.43080
H      0.08494     2.13688    -1.36835
O     -1.79643     1.91818    -1.19713
H     -2.12322     1.29212    -0.52377
O      0.77874     0.17109     0.60669
H      0.10681     0.46931    -0.05220
O      0.41248     0.97217     1.73493
H     -0.11424     0.32848     2.23509
O      3.10519     1.02727    -0.40055
H      2.31951     0.62460     0.03204
O      3.21642     0.23591    -1.58703
H      4.09529    -0.14077    -1.48377
O      1.14369    -1.49122    -1.88619
H      1.84730    -0.80923    -1.88254
O      0.32367    -1.14757    -2.99649
H     -0.21313    -0.43113    -2.62614
O     -0.65248    -1.50901     2.80281
H     -0.54903    -2.10110     2.03129
O     -1.86456    -2.00228     3.37532
H     -1.65124    -1.96304     4.31199
O     -3.39129    -0.59166     0.99629
H     -3.11501    -0.77468     1.90216
O     -2.15597    -0.15759     0.43729
H     -1.80206    -0.97974     0.03637
