 16
-606.6310753072779
O     -1.36745     0.75307     0.74568
H     -1.42211     0.50583     1.67542
O      0.02950     1.09269     0.65536
H      0.09860     1.28679    -0.29368
O      0.42375    -0.69282     2.74892
H      0.74553    -0.33164     1.91136
O      1.43339    -1.66562     3.04094
H      1.86491    -1.27216     3.80598
O     -0.66041     2.18859    -2.82608
H     -0.04660     2.48456    -3.50387
O      0.17012     1.28738    -2.08905
H     -0.25038     0.43169    -2.27056
O     -0.86874    -1.22474    -1.28918
H     -1.16458    -0.77849    -0.48131
O      0.44692    -1.63210    -0.88348
H      0.35349    -2.59075    -0.87227
