 40
-1516.6460793034837
O     -0.47390     2.07961     2.43323
H      0.49074     2.15581     2.53042
O     -0.67715     2.62204     1.12356
H     -1.04861     1.85460     0.65522
O      1.78439    -1.10692    -1.66469
H      2.07057    -0.67760    -0.83699
O      1.03716    -2.19290    -1.11569
H      0.24012    -2.22259    -1.68052
O      0.07544     1.43744    -2.56206
H     -0.87081     1.36605    -2.32644
O      0.25669     0.24787    -3.33866
H      0.92017    -0.21258    -2.78145
O     -1.41668    -0.37519     2.23252
H     -1.21617     0.51281     2.58963
O     -0.88917    -0.18912     0.91983
H      0.07257    -0.31878     1.03264
O     -2.79588     1.40380    -0.59745
H     -3.52114     2.00362    -0.78936
O     -2.48067     0.93292    -1.89913
H     -2.54725    -0.03891    -1.78032
O      1.63389     1.67246    -0.41243
H      1.12671     1.62298    -1.25431
O      1.60602     3.06890    -0.12672
H      0.72212     3.12113     0.28139
O      2.23877     2.21549     2.51300
H      2.39133     2.25484     1.55313
O      2.85764     0.98609     2.87276
H      3.67847     1.28030     3.27912
O     -0.95276    -3.85210     0.69328
H     -1.52514    -4.55996     0.99752
O     -1.88625    -2.78214     0.60063
H     -1.58421    -2.17559     1.29535
O      2.20630    -0.69680     0.91653
H      2.50427    -0.13670     1.65789
O      1.56679    -1.77687     1.59924
H      1.38364    -2.34568     0.83779
O     -1.19586    -2.10412    -2.65132
H     -1.00515    -1.27930    -3.12489
O     -2.30397    -1.71606    -1.84225
H     -2.09068    -2.13860    -0.98615
