 32
-1213.3082031468482
O      1.30325     3.01976     0.97344
H      1.56596     3.66128     1.64003
O      2.48284     2.23541     0.80877
H      2.26160     1.42562     1.31106
O     -0.23672    -2.87241     0.04192
H      0.61623    -2.41843     0.10491
O     -1.07354    -1.81213    -0.43601
H     -0.54134    -1.42224    -1.17539
O     -0.49549     1.11166     0.58604
H      0.02974     1.93411     0.72322
O     -1.35223     1.48244    -0.49616
H     -2.16081     0.99893    -0.23632
O      1.49516    -0.53037     0.50976
H      0.66060    -0.02267     0.38226
O      1.74064    -0.19084     1.87245
H      0.95034    -0.58868     2.29971
O      3.22638     0.12007    -1.44156
H      2.73446    -0.29938    -0.71118
O      2.31855     1.16736    -1.81734
H      2.51467     1.85264    -1.15893
O      0.39281    -0.64417    -2.26160
H      1.12852     0.01693    -2.27720
O     -0.73206     0.09678    -2.73801
H     -0.88853     0.71299    -1.99641
O     -1.69341    -1.04272     2.47391
H     -1.68303    -1.28024     1.53102
O     -0.39867    -1.45435     2.90169
H     -0.49018    -2.40066     3.06259
O     -3.49280     0.00379     0.06229
H     -4.36730    -0.12984     0.44197
O     -3.61620    -0.55365    -1.24445
H     -2.87883    -1.18411    -1.21111
