 16
-606.6433476257652
O     -2.17460     0.25801     0.46063
H     -2.70319     0.20234     1.26376
O     -1.09960     1.11029     0.86624
H     -0.48476     0.45572     1.27871
O      1.75910    -0.02495     1.54875
H      1.73536     0.33904     0.65337
O      0.57343    -0.81232     1.61277
H      0.60169    -1.33788     0.77914
O      0.11394     1.00602    -1.76917
H     -0.39821     1.38888    -1.03952
O      1.44242     1.34784    -1.36625
H      1.72511     1.91802    -2.08819
O     -1.01657    -1.96642    -0.62754
H     -1.40049    -1.15407    -0.25556
O      0.33547    -1.59462    -0.89983
H      0.23693    -0.79722    -1.44882
