 40
-1516.638210212624
O      1.86866     0.56978    -2.03694
H      1.46890    -0.31385    -1.95107
O      0.93613     1.22883    -2.88021
H      1.30932     1.09908    -3.75755
O     -1.33542     1.28135     3.05361
H     -1.24984     2.04968     2.46078
O     -0.32602     0.45279     2.49240
H     -0.78732     0.09016     1.70497
O     -1.33111     0.06143    -1.21977
H     -1.43351     1.03585    -1.20735
O     -1.43793    -0.28782     0.16783
H     -1.68506    -1.23004     0.06916
O      0.05670    -2.28444     3.42885
H     -0.33326    -1.42826     3.64456
O     -0.22294    -2.35955     2.03209
H      0.67041    -2.21273     1.64763
O     -0.24793     3.14003     1.49143
H      0.48310     2.64071     1.05877
O      0.44905     3.99646     2.37962
H      0.52208     3.44915     3.16801
O      2.08505     0.63419     1.42763
H      1.26301     0.59339     1.96201
O      1.71928     1.63700     0.48159
H      1.82470     1.18847    -0.38334
O     -0.96291     4.11426    -1.25839
H     -0.96105     3.99573    -0.29903
O     -1.12175     2.76497    -1.68452
H     -0.29869     2.61090    -2.17154
O     -1.72704    -2.80527    -0.80438
H     -1.63224    -2.74639    -1.77391
O     -0.61234    -3.63512    -0.47075
H     -0.67143    -3.61731     0.49650
O      1.52269    -1.94140    -0.68277
H      0.81344    -2.61137    -0.65994
O      1.98320    -1.94306     0.66787
H      2.18720    -0.99335     0.81344
O     -1.23542    -2.32791    -3.38954
H     -0.76817    -2.93397    -3.97186
O     -0.22277    -1.35762    -3.11918
H     -0.72070    -0.79368    -2.49139
