 36
-1364.9777694544493
O      3.02255     0.74037     0.82588
H      2.77101     1.59119     1.21745
O      2.13469    -0.15764     1.48801
H      1.66772    -0.56659     0.74429
O     -3.15686    -1.90484     0.60772
H     -4.07067    -1.94675     0.30814
O     -3.26453    -1.03480     1.73875
H     -3.08784    -0.15856     1.31903
O      1.47520     3.19472     1.19079
H      0.95165     2.71186     0.53192
O      0.81953     2.83678     2.40130
H      0.22862     3.58254     2.55579
O      0.83676    -1.44866    -3.72260
H      1.42752    -1.32320    -4.47035
O      1.74058    -1.60102    -2.63653
H      1.84030    -0.67867    -2.30129
O      2.16490     0.83365    -1.68272
H      2.67739     0.81499    -0.84675
O      1.00956     1.54173    -1.22050
H      0.27986     1.13337    -1.73593
O     -0.59541    -1.33224     2.57838
H     -1.54820    -1.39443     2.74283
O     -0.42021     0.08618     2.67146
H      0.54796     0.15137     2.65055
O     -1.63373    -0.42194    -1.67100
H     -0.95196    -0.90453    -1.14940
O     -0.87992     0.29087    -2.65235
H     -0.41369    -0.42401    -3.13080
O     -1.39180     1.72422     0.78164
H     -1.12378     1.13380     1.51513
O     -2.60459     1.12720     0.33547
H     -2.32834     0.69023    -0.49434
O      0.18210    -1.67767    -0.18804
H     -0.30872    -1.82893     0.63900
O      0.38769    -2.99636    -0.69680
H      0.97113    -2.76790    -1.43395
