 32
-1213.309444023712
O      4.02986     1.94347     0.44282
H      3.19868     2.23216     0.03318
O      3.59198     1.74327     1.79036
H      4.17100     2.33382     2.28187
O     -0.41610    -3.10147    -1.34445
H     -1.23213    -2.88015    -1.81440
O     -0.05541    -1.81573    -0.85437
H     -0.46718    -1.77679     0.03815
O     -3.57845    -1.37318    -1.08688
H     -4.42027    -1.38563    -1.55292
O     -2.64004    -1.35330    -2.16028
H     -2.25216    -0.45660    -2.04451
O      0.65552     1.69322     0.04849
H      1.20017     0.89594     0.20935
O      1.43744     2.32859    -0.96918
H      0.99816     1.95194    -1.75404
O      2.44093    -0.68115     1.83336
H      2.97590     0.12338     1.97637
O      2.16728    -0.48348     0.44032
H      1.73154    -1.31472     0.18910
O     -0.14822     0.72386    -2.41429
H      0.07406    -0.15191    -2.05903
O     -1.40166     0.96921    -1.77384
H     -1.15683     1.33427    -0.90293
O     -0.75694    -1.55489     1.73899
H     -1.69469    -1.28883     1.77796
O     -0.18216    -0.29487     2.14822
H      0.77198    -0.50323     2.16395
O     -2.27289     1.17856     0.94691
H     -1.47044     1.07080     1.47642
O     -2.87747    -0.09268     1.16989
H     -3.12066    -0.37851     0.27277
