 32
-1213.3159082255818
O     -0.77082    -2.83515     0.18328
H     -0.08257    -2.73630    -0.50886
O     -0.28593    -1.87248     1.13071
H     -1.07262    -1.32543     1.32006
O      0.93706    -2.03986    -1.69326
H      1.66779    -1.57971    -1.22732
O      0.18884    -0.92272    -2.17032
H     -0.70871    -1.29833    -2.27909
O     -2.96310    -1.65655    -0.85216
H     -2.21713    -2.18928    -0.51031
O     -2.45835    -1.25587    -2.13170
H     -2.64785    -0.30808    -2.10641
O     -0.40071     1.37153    -0.98338
H     -0.12221     0.52026    -1.39037
O     -1.81802     1.31651    -1.06498
H     -2.02990     0.97868    -0.18244
O      2.49459     1.94928    -0.94431
H      1.65743     2.35589    -1.20063
O      3.13586     2.96627    -0.17265
H      2.70513     2.81385     0.68797
O      2.03267    -0.53765     1.12994
H      1.22086    -1.08058     1.06086
O      2.57111    -0.59483    -0.19015
H      2.61932     0.35660    -0.41748
O      1.53828     1.97205     1.78281
H      1.79852     1.03333     1.68669
O      0.14181     1.89551     1.51727
H      0.11251     1.74311     0.55236
O     -2.17335    -0.04410     1.56870
H     -3.09285    -0.11934     1.84170
O     -1.51036     0.23273     2.79803
H     -0.87532     0.90876     2.48991
