 36
-1364.9716755017769
O      1.67307     1.79527     0.30149
H      1.24775     2.13208     1.11331
O      1.38951     0.40215     0.45031
H      0.40785     0.42160     0.34400
O     -3.53188    -1.54381     2.10285
H     -4.13831    -1.16562     2.74453
O     -2.47362    -0.58679     2.15613
H     -2.46006    -0.23293     1.23476
O      0.68160     2.23644     2.74459
H      0.63673     3.02604     3.29265
O     -0.60084     1.65024     2.94697
H     -0.35455     0.82771     3.39514
O      2.87048    -0.80921    -1.45460
H      2.37038    -0.37297    -0.73342
O      2.36574    -0.13269    -2.60867
H      3.04681     0.52178    -2.80228
O      0.94837     2.56822    -2.21609
H      1.18541     2.33836    -1.29691
O     -0.48144     2.45738    -2.19003
H     -0.62155     1.73494    -2.81903
O     -0.13420    -1.88662     2.38242
H     -1.02791    -1.48154     2.42527
O      0.66093    -0.90009     3.04904
H      1.20984    -0.57039     2.32325
O     -0.51129    -1.34558    -3.53989
H     -0.52332    -2.11179    -2.95216
O     -0.28206    -0.30264    -2.60099
H      0.69416    -0.21259    -2.61551
O     -1.07092     1.09783     0.00587
H     -1.00758     1.67005    -0.80011
O     -2.03806     0.11946    -0.37133
H     -1.45872    -0.54712    -0.78827
O     -0.14993    -2.19474    -0.49570
H      0.03773    -2.28140     0.45747
O      0.79115    -3.07513    -1.11669
H      1.48158    -2.45681    -1.39890
