 32
-1213.3103510699345
O     -1.74048    -1.20134     1.40201
H     -1.03393    -1.39447     2.04672
O     -1.42541    -2.06445     0.29776
H     -0.52949    -1.77259     0.04232
O      1.04649    -1.18394    -0.24338
H      1.31000    -1.14962    -1.19852
O      2.00508    -2.10716     0.28304
H      1.83862    -1.98238     1.23182
O     -1.07621     0.25286    -2.00132
H     -1.36303     0.78006    -1.21776
O     -2.23465    -0.54359    -2.24062
H     -2.14408    -1.21695    -1.54928
O      0.73337     1.19369     2.12929
H     -0.12018     1.58044     1.83158
O      1.47188     1.22007     0.89588
H      1.30128     0.33194     0.52574
O      0.75359     3.73515    -0.58034
H      1.11769     2.90567    -0.23640
O     -0.44414     3.24457    -1.17572
H     -0.38346     3.55807    -2.08438
O      1.66888    -1.11174    -2.76715
H      2.27722    -1.63708    -3.29710
O      0.39491    -1.62366    -3.18105
H     -0.17032    -0.87087    -2.91630
O      0.33568    -1.22502     3.13713
H      0.59574    -0.30668     2.89393
O      1.56377    -1.91758     2.95662
H      1.47990    -2.61144     3.61556
O     -1.44433     2.17772     1.01826
H     -1.17197     2.76234     0.28207
O     -2.10153     1.16075     0.25916
H     -2.00520     0.35995     0.82028
