 32
-1213.3079331864903
O      2.93972     0.99448     0.62162
H      3.37527     0.77641    -0.21608
O      2.24359     2.18342     0.21396
H      1.38275     2.06715     0.66369
O     -1.17146    -2.88065    -0.23120
H     -1.71421    -3.37239    -0.85705
O     -1.71322    -1.57196    -0.34777
H     -0.97795    -1.09016    -0.76756
O     -0.76452     0.70636    -1.97406
H      0.08129     1.06721    -2.31593
O     -1.32419     1.88115    -1.35964
H     -2.23567     1.55140    -1.19107
O     -0.27786     1.86556     1.10696
H     -0.71170     1.96163     0.22797
O     -1.03947     0.80845     1.69289
H     -0.47252     0.02758     1.55024
O      1.74343     1.58260    -2.35000
H      1.89591     2.09935    -1.53615
O      2.56922     0.44376    -2.06886
H      1.92867    -0.19634    -1.72471
O      0.99995    -0.82987     0.08437
H      1.70270    -0.30026     0.51674
O      1.71581    -1.96671    -0.39217
H      1.62012    -2.54657     0.37991
O      0.67212    -2.85525     2.06376
H     -0.14900    -2.90474     1.55388
O      0.53921    -1.56844     2.64971
H      0.36575    -1.77356     3.57577
O     -3.58419     0.94268     0.82925
H     -2.65950     0.91929     1.14080
O     -3.44017     0.52831    -0.53161
H     -3.06708    -0.36205    -0.43546
