 32
-1213.3159909482563
O      3.36130     0.79823     1.00467
H      4.21984     1.22977     0.97446
O      2.55043     1.75959     0.33582
H      1.66087     1.48711     0.65411
O     -1.90556    -1.90445    -0.21780
H     -1.46400    -1.98324     0.65169
O     -0.81796    -1.72257    -1.12064
H     -0.95317    -0.81009    -1.46408
O     -0.98184     0.77023    -2.10156
H     -0.09930     1.16820    -2.30732
O     -1.49235     1.74799    -1.18424
H     -2.36846     1.35520    -0.95754
O      0.11221     0.83037     0.69883
H     -0.45435     1.12538    -0.05315
O     -0.64254     1.22250     1.85508
H     -0.59905     0.38615     2.34133
O      1.44671     1.74752    -2.18197
H      2.02068     1.88691    -1.41076
O      1.98144     0.55723    -2.75723
H      1.96615    -0.06331    -2.00769
O      1.47261    -1.87995     0.18834
H      0.67579    -1.96160    -0.38307
O      2.29742    -1.03704    -0.61290
H      2.74094    -0.48231     0.05696
O     -0.84715    -2.22944     2.22022
H     -0.68311    -3.02440     2.73829
O      0.25839    -1.39381     2.53944
H      0.80799    -1.51239     1.73761
O     -3.48312     0.46573     1.25363
H     -2.73738     1.06422     1.39810
O     -3.44320     0.28066    -0.16262
H     -3.04148    -0.61011    -0.23214
