 24
-909.9795130657363
O     -2.48952    -1.46688    -0.41761
H     -1.65707    -1.78253    -0.82744
O     -1.99325    -1.08911     0.86625
H     -2.50660    -1.65802     1.44729
O     -0.07682    -1.94424    -1.47658
H      0.62362    -1.87032    -0.79688
O      0.31609    -0.87720    -2.34841
H     -0.42261    -0.24910    -2.22975
O      1.91645    -1.07550    -0.00111
H      1.85755    -0.76850     0.92460
O      2.09629     0.16528    -0.70165
H      1.72051    -0.09464    -1.56212
O     -1.92131     2.09129    -1.41518
H     -1.09810     2.19353    -0.90439
O     -1.71572     0.79404    -1.99099
H     -2.40651     0.26793    -1.55873
O      1.46609    -0.15983     2.50358
H      0.82039     0.54673     2.29266
O      2.53828     0.59581     3.05465
H      2.60814     0.19786     3.92640
O      0.25364     1.96814     0.19907
H      0.95277     1.32175    -0.04211
O     -0.36487     1.38136     1.34889
H     -1.00883     0.76599     0.95813
