 40
-1516.6373940474202
O      3.39554     0.75306    -1.71842
H      4.32080     0.87505    -1.48826
O      2.76915     1.83582    -1.04145
H      2.39007     1.38662    -0.25581
O     -1.96560    -0.51304    -0.15164
H     -2.47507     0.24694    -0.51099
O     -2.53399    -0.72955     1.13204
H     -1.99079    -0.15115     1.69028
O     -0.79259     2.11049     0.65154
H     -0.67468     2.45761    -0.25960
O     -0.12333     3.09955     1.43758
H     -0.26572     2.71734     2.31586
O      1.36275     0.65818     0.87987
H      0.47143     1.08693     0.83264
O      1.26642    -0.19140     2.02860
H      0.98743    -1.04224     1.62809
O     -3.03887     1.66502    -1.36512
H     -3.89937     2.09521    -1.39703
O     -2.81147     1.33347    -2.73518
H     -1.90955     1.68257    -2.84947
O      0.23697     2.65072    -1.73120
H      1.20425     2.54745    -1.66638
O     -0.11297     1.74231    -2.77755
H      0.16808     0.87115    -2.42425
O      1.65207    -1.30362    -1.25037
H      2.34320    -0.63860    -1.41558
O      0.50161    -0.64972    -1.77802
H     -0.12409    -0.71882    -1.03394
O     -0.77645    -2.86605     1.92323
H     -1.45365    -2.39435     1.41840
O      0.38472    -2.56976     1.14054
H      0.60201    -3.44669     0.75935
O      1.59003    -4.33341    -1.44441
H      1.50044    -3.37192    -1.37356
O      0.81266    -4.76394    -0.33051
H      0.03940    -5.16218    -0.74406
O     -0.18463     1.33595     3.61771
H      0.40721     0.70859     3.14168
O     -1.41617     0.62180     3.60316
H     -1.51132     0.37020     4.52577
