 32
-1213.304638097255
O      2.81987     0.32623    -1.53644
H      1.94565     0.12223    -1.91417
O      3.18559    -0.88017    -0.86825
H      2.56419    -0.87776    -0.11995
O      1.23914    -0.62094     1.04297
H      1.25547     0.35868     1.03103
O      0.01421    -0.75084     0.31057
H     -0.19180    -1.70158     0.33091
O     -0.81828     0.28866    -2.32498
H     -0.60705     0.93668    -1.61580
O      0.46888    -0.01389    -2.85349
H      0.41730     0.35650    -3.73876
O      3.51626     2.28129     0.09233
H      3.36372     1.54653    -0.54351
O      2.68570     3.28475    -0.50354
H      3.20684     4.07715    -0.35183
O      0.70217     1.90610     0.58431
H      1.33365     2.54270     0.18498
O     -0.44253     2.00953    -0.26815
H     -1.16646     1.78878     0.35585
O     -1.55339    -3.21165     2.28832
H     -1.78768    -3.88742     2.93130
O     -2.75976    -2.45068     2.22250
H     -2.45634    -1.59273     2.55847
O     -2.89749    -1.43341    -0.32863
H     -3.04266    -2.00726     0.44088
O     -1.90286    -2.18832    -1.01885
H     -1.59799    -1.52733    -1.65518
O     -1.71810     0.20608     2.05725
H     -0.95876    -0.10192     1.52428
O     -2.51407     0.85862     1.05797
H     -2.71227     0.11622     0.45304
