 28
-1061.639171798807
O      2.51234    -1.68780    -1.62849
H      2.07585    -1.64542    -0.75429
O      2.16930    -0.40444    -2.17351
H      2.81115     0.17564    -1.73792
O      1.30897    -2.10414     1.77434
H      0.42149    -2.46021     1.62931
O      1.32035    -1.14442     0.70380
H      1.80872    -0.39202     1.09850
O      0.16633     1.44795    -0.60085
H     -0.34514     1.35498     0.24603
O     -0.23423     0.25796    -1.28646
H     -0.81912    -1.45207    -0.02061
O     -3.34584     0.84305    -1.02267
H     -4.20689     1.18637    -1.27875
O     -2.47755     1.60387    -1.87473
H     -1.66451     1.07406    -1.79885
O     -2.48489     1.47875     1.47237
H     -2.67457     1.29704     0.53363
O     -1.15714     0.96394     1.60597
H     -1.33772     0.00975     1.73312
O     -2.02584    -1.55128     1.42309
H     -2.90877    -1.49066     1.04345
O     -1.27972    -2.19843     0.39501
H      0.62178    -0.02548    -1.68834
O      2.78163     1.37372    -0.10023
H      1.82557     1.53468    -0.23515
O      2.77104     0.97345     1.27071
H      3.69532     1.08369     1.51241
