 32
-1213.3082147963762
O      2.32460    -0.06414     1.11610
H      2.33621    -0.64162     0.32883
O      2.01071     1.20803     0.54695
H      1.22972     1.49415     1.06521
O     -0.90013    -0.86330     0.14932
H     -0.40463    -1.41212     0.78840
O     -0.66275    -1.49796    -1.11059
H     -1.05317    -0.80399    -1.67544
O     -1.36893     0.90323    -2.08714
H     -0.45009     1.13425    -2.31313
O     -1.58091     1.74457    -0.95182
H     -2.47460     1.46338    -0.66102
O     -0.41099     1.90211     1.50785
H     -0.83523     1.82612     0.63006
O     -1.34651     1.22062     2.34845
H     -0.83422     0.42553     2.57593
O      1.30398     1.05826    -2.05505
H      1.59793     1.18704    -1.12965
O      2.53251     1.01953    -2.77241
H      2.64102     0.06767    -2.87050
O      1.96975    -1.75897    -0.95716
H      1.00542    -1.67707    -1.16168
O      2.52321    -2.07961    -2.22578
H      3.05140    -2.84834    -1.99742
O      0.26433    -2.08370     2.17766
H      0.17728    -2.67427     2.93011
O      0.45699    -0.82512     2.80642
H      1.24882    -0.51387     2.31470
O     -3.49786    -0.49412     0.63921
H     -2.55711    -0.64053     0.43759
O     -3.58100     0.93821     0.60317
H     -3.22398     1.18823     1.46719
