 36
-1364.9809423890115
O      2.23935     1.63661     2.08391
H      2.50283     2.13130     2.86601
O      2.66902     0.30923     2.38456
H      1.82702    -0.08572     2.70161
O      3.17752    -2.71492     2.27682
H      3.53851    -3.59146     2.11259
O      2.00254    -2.75599     1.46708
H      2.25653    -2.16581     0.72558
O      0.06025     1.99549     0.60139
H      0.85729     1.78386     1.12447
O     -0.94226     1.18020     1.22758
H     -1.67176     1.30327     0.59479
O     -3.48574     0.76005    -2.95279
H     -2.79309     0.44650    -3.55624
O     -4.01481    -0.43479    -2.38321
H     -3.43944    -0.56703    -1.61354
O     -0.65486     0.83403    -3.72850
H     -0.81009     1.56533    -3.09393
O     -0.23481    -0.20476    -2.84355
H      0.60307     0.11898    -2.47475
O      2.78711    -0.81224    -0.24972
H      3.14225    -0.28137     0.47983
O      1.70510    -0.00271    -0.70248
H      0.94402    -0.48225    -0.30505
O     -1.10728     2.48429    -1.69196
H     -0.43387     2.37106    -0.99574
O     -2.24457     1.98661    -0.96641
H     -2.78417     1.63966    -1.70975
O     -0.34036    -1.63496     2.75172
H      0.48115    -2.14436     2.69244
O      0.17373    -0.34286     3.08109
H     -0.32558     0.21775     2.44669
O     -0.35587    -1.43905     0.04978
H     -0.66590    -1.56272     0.96867
O     -1.51718    -0.93955    -0.62068
H     -1.10843    -0.72441    -1.48102
