 32
-1213.3048416883773
O      1.13686    -0.36655     2.37365
H      1.42340    -0.06516     1.48499
O      0.91201    -1.76638     2.15290
H     -0.02014    -1.82131     2.41970
O     -1.18776    -2.31891    -2.94225
H     -1.60334    -1.58593    -2.45384
O     -1.33230    -1.88166    -4.29607
H     -1.86025    -2.59845    -4.65896
O     -1.09340    -1.11785    -0.20037
H     -0.18753    -1.11070    -0.57345
O     -1.81990    -0.34271    -1.15630
H     -1.87150     0.52531    -0.71193
O      1.81013     0.55495    -0.03877
H      1.86278     1.52316    -0.12408
O      3.08117     0.11158    -0.52536
H      2.75629    -0.50047    -1.19611
O      0.96362     3.45371     1.30372
H     -0.00757     3.41465     1.37483
O      1.08862     3.21477    -0.10306
H      1.48394     4.03352    -0.41325
O      1.76687    -2.85310    -0.59183
H      1.58920    -2.46436     0.27875
O      1.18771    -1.85024    -1.43658
H      0.66132    -2.37549    -2.06059
O     -1.67362     2.23838    -0.30744
H     -0.78196     2.47136    -0.60432
O     -1.65885     2.73923     1.02731
H     -1.66676     1.91670     1.56066
O     -1.68431    -0.79224     2.34806
H     -1.61671    -0.84502     1.37583
O     -1.30530     0.56686     2.58494
H     -0.33674     0.45315     2.68564
