 20
-758.3077616447571
O     -0.29923    -1.06957     1.22732
H      0.46297    -1.50718     0.82267
O     -1.12361    -0.93564     0.06261
H     -1.85522    -0.35821     0.37506
O     -0.13722     1.87332    -0.92743
H      0.17471     1.89895     0.00098
O      0.45831     0.63148    -1.35561
H     -0.20891     0.01872    -0.99730
O      2.12538     1.04899     1.40846
H      2.15945     0.84470     0.46253
O      0.75531     1.41993     1.57873
H      0.33482     0.55439     1.72967
O      2.99091    -2.20404    -0.55150
H      3.16203    -3.06822    -0.93925
O      1.57487    -2.10036    -0.72905
H      1.50258    -1.36582    -1.35460
O     -2.81943     1.27490    -0.82007
H     -1.91578     1.64064    -0.83293
O     -2.94687     0.91778     0.56182
H     -3.90205     0.95765     0.67559
