 40
-1516.637145695651
O     -1.57902    -0.54127    -1.28838
H     -2.47785    -0.88569    -1.19526
O     -1.78079     0.87436    -1.38651
H     -1.02686     1.09720    -1.97526
O      1.49317    -0.99317    -1.26183
H      0.86214    -1.41118    -0.64263
O      2.69544    -0.99836    -0.48295
H      3.32170    -0.61817    -1.11694
O      1.51398     3.34136     0.41939
H      2.30381     2.83199     0.18729
O      0.47927     2.49570    -0.06967
H      0.34162     1.84377     0.64099
O     -0.04443    -1.84450     0.77518
H     -0.86111    -2.39259     0.78388
O      0.77971    -2.46986     1.76266
H      1.25341    -1.68571     2.10235
O     -4.16056    -0.97352     1.55781
H     -3.41464    -0.33526     1.52812
O     -4.84770    -0.64719     0.35031
H     -5.52972    -0.04670     0.66616
O      1.89787    -0.20697     2.71644
H      1.07357     0.27214     2.87558
O      2.49159     0.61033     1.69748
H      2.57462    -0.01319     0.94995
O      0.52187     0.96220    -2.76313
H      0.97253     0.25604    -2.25686
O      1.33317     2.10710    -2.50166
H      0.95340     2.40798    -1.64241
O      3.79872     1.22262    -1.90587
H      2.94575     1.57263    -2.25134
O      3.94605     1.98115    -0.70551
H      4.60440     2.63621    -0.96147
O     -2.45896    -3.07764     0.75077
H     -3.19924    -2.61291     1.18108
O     -2.94287    -3.18176    -0.59002
H     -2.96538    -4.13835    -0.70464
O     -0.81102     0.52064     1.75252
H     -0.60327    -0.35062     1.35033
O     -2.13312     0.76412     1.26884
H     -1.98251     0.97064     0.32069
