 24
-909.9792800751744
O     -2.39939    -0.74692     0.39804
H     -2.17799    -0.18077    -0.36632
O     -2.82468     0.24006     1.34223
H     -3.61617    -0.18154     1.68796
O      1.64907    -1.98243    -1.09635
H      2.00322    -1.08611    -1.02079
O      0.33151    -1.81527    -0.58651
H     -0.00908    -1.06006    -1.11332
O      1.78722     1.91270    -1.93622
H      2.50029     2.09422    -2.55378
O      2.35365     0.87053    -1.15304
H      1.93525     1.06466    -0.29032
O     -1.38688     1.14022    -1.29367
H     -0.89853     1.56762    -0.56308
O     -0.37463     0.35282    -1.93344
H      0.34105     0.99933    -2.10885
O     -0.35792    -0.88654     2.15054
H     -1.14760    -1.10279     1.61959
O      0.45458    -2.05785     2.03902
H      0.54008    -2.12584     1.06427
O     -0.16475     1.93747     0.98300
H     -0.80299     1.53902     1.59108
O      0.99005     1.09497     1.13386
H      0.62100     0.25255     1.51364
