 36
-1364.9743150202494
O      0.15575    -1.82136     0.81721
H      0.42354    -1.65391     1.74275
O      1.33254    -1.40050     0.10553
H      1.19925    -1.90472    -0.72797
O     -1.48623     0.83071     2.33895
H     -0.54423     0.58855     2.33077
O     -2.12077    -0.44926     2.23321
H     -2.40154    -0.45410     1.29454
O     -0.33679    -1.98131     3.83169
H     -1.17392    -1.61702     3.50184
O      0.54921    -0.97119     3.34650
H      0.93525    -0.61045     4.15469
O      2.06933    -2.61179    -2.84835
H      2.32358    -1.67266    -2.80670
O      0.79481    -2.52425    -2.20223
H      0.19900    -2.93609    -2.83657
O     -0.45488     0.40007    -2.60149
H     -0.83684    -0.43257    -2.25629
O     -0.83490     1.28524    -1.54013
H     -0.05103     1.22563    -0.95081
O     -0.74857     3.42554     0.50815
H     -0.86544     3.20782    -0.42719
O     -2.03798     3.12068     1.04108
H     -1.85214     2.30714     1.54472
O     -1.65941    -1.32518    -1.05004
H     -1.07413    -1.53074    -0.28937
O     -2.58669    -0.41094    -0.45557
H     -2.19621     0.44081    -0.73449
O      1.23637     1.24152     0.06501
H      1.42326     0.27637     0.16053
O      1.05711     1.67090     1.41647
H      0.48088     2.44463     1.25243
O      2.19724     0.11137    -2.45672
H      1.26469     0.28475    -2.70603
O      2.77882     1.39753    -2.61568
H      2.79010     1.70083    -1.70066
