 24
-909.9794240221825
O     -1.89065    -2.13072     1.80836
H     -2.22856    -2.95072     2.18305
O     -0.99835    -2.62105     0.79903
H     -0.14343    -2.38519     1.21459
O     -0.22836    -0.49477    -1.80708
H     -0.35875     0.39293    -2.20046
O     -1.46979    -0.64285    -1.10282
H     -1.29113    -1.40598    -0.52292
O      1.92067    -0.48866    -0.25821
H      1.17203    -0.54576    -0.89005
O      2.78881     0.45849    -0.85489
H      2.19460     1.19930    -1.02755
O     -0.40617     2.03348    -2.64094
H     -0.20082     2.52629    -3.44022
O      0.70360     2.36745    -1.81519
H      0.28194     2.26601    -0.93338
O      1.00259    -1.31570     2.06927
H      1.50210    -0.93735     1.31781
O      0.26340    -0.17135     2.51682
H     -0.63395    -0.53432     2.56128
O     -0.07834     1.67377     0.61022
H      0.17529     1.03464     1.31143
O     -1.49959     1.49397     0.55270
H     -1.56538     0.77843    -0.10917
