 12
-454.97179869342875
O     -0.14954    -0.07555     1.58259
H     -0.08552    -0.23974     2.52859
O      0.40724     1.24286     1.47766
H      0.97748     1.09784     0.70137
O      1.87855    -0.90148    -0.66531
H      1.32629    -1.13454     0.09360
O      1.43789     0.43626    -0.92644
H      0.56204     0.29602    -1.31747
O     -1.42065     0.36964    -0.72881
H     -1.21524     0.25782     0.21471
O     -2.01067    -0.90213    -1.02634
H     -2.83927    -0.62416    -1.42653
