 32
-1213.30456750185
O      3.08431     1.27226    -0.84182
H      2.84180     0.47118    -1.35992
O      2.10383     2.19870    -1.31481
H      2.53076     2.60626    -2.07568
O     -2.80206    -2.47911     2.40302
H     -2.65884    -3.11932     3.10548
O     -1.74703    -1.55765     2.66385
H     -1.20490    -1.63844     1.85268
O     -0.72605    -0.53965    -3.44844
H     -0.69299     0.14469    -2.74663
O     -0.40264    -1.68696    -2.65657
H     -0.89409    -2.38744    -3.09409
O      2.05081    -0.73839    -2.24364
H      1.22595    -1.17203    -2.53863
O      2.64463    -1.74527    -1.42290
H      2.19503    -1.57971    -0.56849
O      0.61009     1.37973     2.77219
H     -0.33085     1.59018     2.71956
O      0.92056     1.34539     1.37659
H      1.64844     1.97753     1.30429
O     -0.23715     0.99191    -1.35075
H      0.63463     1.44889    -1.34078
O     -1.10653     2.04528    -0.95439
H     -1.42517     1.68693    -0.11607
O     -0.20919    -1.63538     0.39701
H     -0.21847    -1.58152    -0.57169
O      1.12815    -1.23838     0.70562
H      1.03642    -0.27720     0.88693
O     -2.72647     1.16343     1.32984
H     -3.53654     1.67596     1.38917
O     -2.30875     1.12553     2.69153
H     -2.22571     0.16110     2.81032
