 16
-606.63565574003
O     -0.08419     1.74147     0.75300
H     -0.82311     1.39847     0.22049
O     -0.67680     2.88062     1.38210
H     -0.24160     3.60303     0.91912
O     -0.02814    -0.89374     1.88643
H     -0.00916     0.06872     1.97809
O      1.21200    -1.07230     1.19811
H      1.55022    -1.88411     1.58921
O     -1.89308    -0.99471    -1.47741
H     -1.03046    -0.76097    -1.84899
O     -1.88532    -0.22909    -0.26737
H     -1.52152    -0.85862     0.37029
O      1.87322    -1.23216    -2.03013
H      2.43443    -0.61254    -2.50575
O      0.96168    -0.33436    -1.38655
H      1.09121    -0.59475    -0.45662
