 36
-1364.9817785090852
O     -1.55626     1.14422    -1.69373
H     -2.09265     0.33116    -1.66307
O     -2.08744     1.86891    -0.57711
H     -2.13100     2.76255    -0.94819
O     -1.43913    -2.03545    -1.99173
H     -0.64549    -1.47001    -1.85069
O     -2.38534    -1.39336    -1.15098
H     -1.95350    -1.50042    -0.28156
O      2.85673    -0.48005     1.43226
H      2.39844    -0.98926     0.73451
O      1.85078    -0.36967     2.44081
H      1.33067    -1.18823     2.32314
O      1.57332    -1.68211    -0.57249
H      1.16385    -2.54787    -0.78815
O      0.73007    -0.76355    -1.26237
H      0.98287     0.09283    -0.86359
O     -0.72286     4.23063    -1.24197
H      0.09599     3.72856    -1.10109
O     -0.87666     4.86506     0.03136
H     -0.72875     5.78887    -0.19838
O      0.22347     1.72105     2.11521
H      0.87777     1.02318     2.32393
O     -0.83946     0.89974     1.62429
H     -1.21277     1.41389     0.87305
O      0.59850    -4.10208    -1.05367
H      0.61725    -4.67489    -1.82651
O     -0.74672    -4.19716    -0.58792
H     -1.17240    -3.49002    -1.12748
O      1.86173     1.50847    -0.35044
H      2.53648     1.23207     0.29090
O      1.54787     2.84193     0.05253
H      1.00282     2.67649     0.84728
O      0.16921    -2.33051     1.73406
H      0.08221    -3.21585     1.35659
O     -0.79133    -1.62579     0.95709
H     -0.69073    -0.69996     1.27301
