 20
-758.3129357991999
O      0.06019    -1.96619     1.72645
H     -0.11098    -2.87278     2.00460
O      0.93756    -2.14184     0.61560
H      0.31313    -2.00047    -0.13031
O      1.89728     0.55354     0.68836
H      1.90549    -0.38873     0.90961
O      2.23726     0.49656    -0.71101
H      1.93640     1.37576    -0.97416
O     -2.12640     0.30514     0.31157
H     -1.73104     1.19738     0.30085
O     -1.86382    -0.08221     1.66276
H     -1.12848    -0.70961     1.55432
O     -0.81121    -1.38208    -1.27928
H     -1.45123    -0.83645    -0.76858
O     -0.18363    -0.39092    -2.09968
H      0.73190    -0.43018    -1.78498
O     -0.38253     2.36468     0.21361
H      0.31237     1.90279     0.70991
O      0.15311     2.37052    -1.11163
H     -0.31812     1.63421    -1.53055
