 36
-1364.9721652964474
O      2.18781     2.84427     1.62088
H      2.69213     2.02333     1.80102
O      3.23021     3.73492     1.23008
H      3.10362     4.44376     1.86599
O     -3.49169    -3.01886    -1.37329
H     -4.34574    -3.39481    -1.60502
O     -3.85018    -1.69116    -0.99973
H     -3.20533    -1.54781    -0.28934
O      2.94803    -0.20025     3.17339
H      3.80027    -0.62556     3.30288
O      3.10513     0.32610     1.86230
H      2.50867    -0.25946     1.33698
O     -1.24172     1.34415     2.09966
H     -1.13733     1.80747     1.24301
O      0.03013     0.68475     2.16922
H      0.43781     1.09899     2.94263
O     -1.80438    -1.19610     0.78435
H     -1.36964    -0.62900     1.44203
O     -0.94191    -2.34283     0.76112
H     -0.96507    -2.58818    -0.18538
O      0.75688     1.99668    -0.51537
H      1.18336     2.37218     0.28436
O     -0.61963     2.33957    -0.32102
H     -1.01209     1.74769    -0.99996
O     -1.16300     0.68833    -2.30183
H     -1.31772    -0.27386    -2.42027
O     -0.23032     0.97074    -3.34662
H      0.46004     1.41787    -2.83989
O      1.48148    -1.17720     0.38069
H      0.61324    -1.56206     0.63461
O      1.21367    -0.63016    -0.91205
H      0.96200     0.29729    -0.70493
O     -0.32970    -2.59598    -1.84971
H      0.30841    -1.85922    -1.74856
O     -1.38744    -1.96910    -2.59421
H     -2.17235    -2.45114    -2.26060
