 36
-1364.9752064480194
O      3.11592     2.81245    -2.28836
H      3.72655     3.31783    -2.83206
O      2.74953     3.76250    -1.28932
H      2.66545     3.16782    -0.53157
O     -2.23541    -1.03972    -1.17722
H     -1.33666    -1.42523    -1.14439
O     -2.05148     0.12260    -1.98634
H     -2.08576     0.83429    -1.31998
O     -0.83804    -3.65163     1.07376
H     -1.57056    -3.07894     1.36199
O     -1.50189    -4.61210     0.25754
H     -1.39798    -5.41074     0.78528
O      2.50784     0.97773     1.44858
H      2.62204     0.24770     0.82879
O      1.68680     1.85324     0.67522
H      0.78624     1.70946     1.03153
O     -1.41708     2.13898    -0.31680
H     -0.57203     2.27517    -0.78910
O     -0.97272     1.69813     0.96609
H     -1.67924     1.06345     1.21588
O     -2.82674    -0.25680     1.30296
H     -2.84527    -0.62805     0.39777
O     -2.35701    -1.38398     2.05572
H     -1.45890    -1.07050     2.28391
O      0.60887     0.54656    -2.32580
H     -0.34252     0.39211    -2.48739
O      0.60434     1.94579    -2.02771
H      1.49921     2.22505    -2.30805
O      0.22185    -2.10191    -0.86572
H      0.11535    -2.73651    -0.12762
O      1.11385    -1.12811    -0.31221
H      1.05661    -0.42888    -1.00314
O      1.24653    -1.00649     2.91415
H      1.69665    -0.15401     2.97024
O      0.16183    -0.62656     2.07810
H      0.50955    -0.81249     1.17217
