 36
-1364.9732658277344
O     -1.33296     0.44341     0.88279
H     -1.86333     0.04941     1.59458
O     -0.19001     0.93053     1.58113
H      0.46486     0.21019     1.46010
O     -1.07719    -2.13923     3.12554
H     -1.40226    -2.84210     3.69493
O     -2.26352    -1.69194     2.48292
H     -2.17420    -2.07953     1.58421
O     -2.12111    -2.37848    -0.10123
H     -2.64894    -1.68372    -0.55594
O     -0.85990    -2.19121    -0.75431
H     -0.22602    -2.23886    -0.00840
O      4.77192     1.19897    -0.68462
H      5.29775     1.45516    -1.44839
O      4.00626     2.40047    -0.45662
H      3.10658     2.04436    -0.58924
O     -3.36597    -0.34686    -1.31432
H     -2.66486     0.28179    -1.60900
O     -4.10624     0.43370    -0.38438
H     -4.94850     0.50578    -0.84257
O      1.03693     3.32692    -0.53205
H      0.94573     4.23087    -0.22061
O     -0.25924     2.79887    -0.28234
H     -0.11078     2.23576     0.51395
O      2.77963    -0.54681    -0.97286
H      3.66189    -0.14157    -0.86979
O      2.04471     0.67376    -0.82547
H      1.25196     0.49105    -1.38116
O     -1.20848     1.01191    -2.08266
H     -0.83583     1.70611    -1.50183
O     -0.15115     0.04871    -2.10077
H     -0.51999    -0.71644    -1.60894
O      1.58589    -1.07062     1.35542
H      2.07108    -1.05064     0.50505
O      0.85709    -2.29952     1.28431
H      0.25712    -2.19439     2.04865
