 36
-1364.9731797241245
O      2.75417     1.29922     1.18798
H      3.36869     1.07330     0.47012
O      3.13045     0.40089     2.23592
H      2.47852    -0.30570     2.10969
O     -2.42769     0.26660     0.72749
H     -2.28180    -0.70381     0.67707
O     -3.16017     0.45416    -0.50845
H     -2.91342     1.36905    -0.71019
O     -0.27724    -1.59720     2.04607
H      0.03009    -2.26593     1.41385
O      0.39459    -0.47337     1.47942
H      0.04026     0.27676     2.00416
O      3.29500    -1.58823    -1.04697
H      3.65054    -1.89769    -1.88546
O      3.37830    -0.17023    -1.20108
H      2.42143     0.05704    -1.25262
O     -3.29806    -2.23890    -1.22513
H     -3.62460    -1.33158    -1.16293
O     -2.39655    -2.23141    -0.11015
H     -1.55539    -2.52803    -0.51930
O      0.41065     2.60104     1.08139
H      1.26464     2.12386     1.18783
O     -0.40388     1.98221     2.07999
H     -1.23258     1.82352     1.59994
O     -0.16338     0.08749    -1.81122
H     -0.68110     0.91294    -1.81715
O      0.86115     0.48745    -0.89672
H      0.53996     0.06938    -0.06454
O     -0.88790     2.64120    -1.23546
H     -0.37955     2.73586    -0.39572
O     -2.20511     2.97992    -0.80491
H     -2.40728     3.71638    -1.38854
O      0.93740    -2.63810    -0.14401
H      1.75438    -2.25669    -0.50641
O      0.02481    -2.60399    -1.25044
H      0.06211    -1.67479    -1.55262
