 40
-1516.6404537941382
O      1.12015     2.44177    -1.84931
H      1.04556     2.08597    -0.93526
O     -0.08006     3.18859    -2.00509
H      0.18411     4.08615    -1.78196
O      3.79955    -0.23213     1.48428
H      3.22886     0.53095     1.70904
O      3.74783    -1.01917     2.67111
H      2.82821    -1.32031     2.65661
O     -1.73782     1.20172    -0.08246
H     -1.56751     0.24928    -0.24140
O     -2.17520     1.63320    -1.36417
H     -1.40234     2.15096    -1.66465
O     -1.30121     0.20905     2.93657
H     -2.00041    -0.07442     2.32468
O     -0.89234     1.49236     2.45253
H     -1.22757     1.51770     1.53312
O      1.18081     1.28259     0.54938
H      1.24906     0.30434     0.43453
O      1.74834     1.46882     1.84625
H      0.93476     1.46859     2.38097
O      0.74871    -1.51340     2.74428
H      0.00025    -0.89966     2.87804
O      0.12587    -2.60352     2.05156
H      0.60358    -2.56515     1.21036
O     -2.29290    -1.82687     1.14711
H     -1.53412    -2.28802     1.55526
O     -1.69139    -1.44301    -0.09356
H     -2.39377    -1.60442    -0.74626
O     -3.40393    -0.56356    -2.26284
H     -3.05573     0.32323    -2.02778
O     -2.90948    -0.69875    -3.59784
H     -3.73332    -0.75759    -4.09266
O     -0.30330    -0.24421    -2.50693
H     -0.96870    -0.34622    -3.20519
O      0.88205     0.06308    -3.24684
H      1.03277     0.97515    -2.95378
O      1.31748    -1.21084    -0.18961
H      1.03714    -1.10530    -1.11825
O      2.60160    -1.84348    -0.28967
H      3.12082    -1.25040     0.29852
