 32
-1213.3072656722052
O     -1.44961    -0.20677     2.14960
H     -0.55615    -0.58711     2.16911
O     -1.99200    -0.71847     0.93718
H     -1.74254    -0.00477     0.31547
O      1.14045    -0.49240    -3.27671
H      0.37885    -0.02629    -2.87109
O      0.48014    -1.65202    -3.77918
H      0.40721    -1.46598    -4.72160
O     -2.05728    -1.99131    -1.60334
H     -2.11690    -1.92942    -0.63544
O     -0.88358    -2.78373    -1.76632
H     -0.47646    -2.37818    -2.55725
O     -1.12812     0.43645    -2.20147
H     -1.63266    -0.38792    -2.04972
O     -1.11606     0.99314    -0.88828
H     -0.15157     1.14138    -0.72213
O      1.36569     1.33917    -0.09407
H      1.44373     0.49150     0.38515
O      1.43385     2.30488     0.96808
H      0.48456     2.42856     1.19551
O      2.03885    -1.69831    -0.71092
H      1.98639    -1.12391    -1.48934
O      0.76373    -1.48503    -0.09618
H      0.19040    -2.12817    -0.56333
O      2.11930     0.69944     3.16099
H      2.05254     1.43386     2.52703
O      1.50821    -0.34661     2.39522
H      2.23410    -0.96804     2.26400
O     -0.96891     3.06594     3.04789
H     -1.62669     3.76271     2.97564
O     -1.12089     2.42263     1.78503
H     -1.36688     1.51158     2.05785
