 28
-1061.6412316338212
O      1.09453    -2.30236    -2.40893
H      1.48031    -1.42952    -2.25635
O     -0.27525    -2.07563    -2.06367
H     -0.34459    -2.54429    -1.21928
O     -0.53920    -1.78008     0.73825
H     -1.30732    -1.20190     0.98526
O      0.43931    -0.80223     0.33573
H      0.58593    -0.27522     1.15598
O      2.28254     1.46305     1.39886
H      2.72252     0.63656     1.15534
O      1.12999     0.99004     2.09978
H     -1.35449     2.16431    -0.07490
O     -3.42772    -0.36381     0.38220
H     -2.86913    -0.20606    -0.40164
O     -2.48796    -0.12486     1.42750
H     -2.33709     0.83690     1.35786
O     -0.59921     1.04082    -1.21481
H     -0.07613     0.42222    -0.66288
O     -1.67665     0.18662    -1.61520
H     -1.19767    -0.62745    -1.87213
O     -0.65187     2.93153     1.50444
H     -1.00315     3.77888     1.79281
O     -1.76052     2.39836     0.78794
H      0.52872     1.74855     2.00171
O      3.10549    -0.46691    -1.40783
H      3.83087    -0.91448    -1.85397
O      3.20987    -1.00501    -0.08982
H      2.33917    -1.42313    -0.00526
