 36
-1364.972691472925
O      0.45882     1.87557    -0.41368
H     -0.29690     2.47596    -0.29472
O      1.24161     2.46338    -1.44769
H      0.87023     1.99370    -2.21375
O     -1.76378    -2.29431    -2.37998
H     -2.49516    -2.90234    -2.52612
O     -1.12436    -2.83826    -1.23148
H     -1.47529    -2.27453    -0.51160
O      1.71879     1.00967     1.75937
H      1.42365     1.34978     0.88561
O      2.64006    -0.01195     1.38198
H      2.24724    -0.79952     1.78608
O      1.39580    -3.37403     0.43991
H      2.28421    -3.15325     0.13521
O      1.35605    -2.66613     1.68746
H      0.51235    -2.20111     1.59218
O     -2.54881     1.40857     1.25512
H     -1.89549     1.77145     1.88432
O     -2.30800     2.21048     0.09346
H     -2.30208     1.53058    -0.59402
O     -1.33324     0.28468    -1.88982
H     -1.57697    -0.62623    -2.15176
O     -0.20945     0.54885    -2.74156
H      0.39096    -0.18524    -2.50651
O     -0.49992     2.26749     2.81218
H      0.28358     1.71386     2.62119
O     -0.07346     3.51870     2.27315
H      0.05058     4.03073     3.07899
O      1.32343    -1.47168    -1.84165
H      0.82474    -2.19656    -1.42263
O      2.60748    -1.55693    -1.23703
H      2.55910    -0.86650    -0.55792
O     -0.55164    -0.66055     0.74876
H     -0.44655    -0.03202     0.00387
O     -1.91305    -1.06623     0.61109
H     -2.35278    -0.23919     0.92656
