 36
-1364.9769089695899
O      2.00514     2.60144     1.85639
H      1.19909     2.82503     1.33699
O      3.02454     2.82195     0.88145
H      3.36104     3.69330     1.11414
O     -2.96838    -1.12319     2.05066
H     -1.99644    -1.07317     2.14405
O     -3.16474    -2.51542     1.80556
H     -3.42420    -2.85028     2.67052
O     -1.78137    -2.86444    -1.17948
H     -0.99607    -2.64436    -1.71497
O     -1.17731    -3.11093     0.09142
H     -1.96691    -3.09342     0.66301
O      0.08232    -0.49267    -2.71352
H     -0.68675    -0.35251    -2.11366
O      0.42703    -1.84968    -2.40699
H      1.20323    -1.72444    -1.83243
O      0.25932     0.13283     1.62106
H      1.13682    -0.08593     1.24091
O     -0.24422    -1.14476     1.97915
H     -0.28207    -1.57930     1.11271
O     -1.19383     2.21508     0.84198
H     -0.72963     1.44274     1.21508
O     -0.11309     2.94807     0.27877
H      0.09376     2.47464    -0.54936
O      2.56042     1.47796    -1.37963
H      2.66100     2.02484    -0.57317
O      1.22036     1.77253    -1.75967
H      0.94521     0.95880    -2.23271
O     -1.72470    -0.06170    -0.84686
H     -2.36821    -0.78373    -0.73217
O     -2.52797     1.06405    -1.21996
H     -2.33413     1.64327    -0.46227
O      2.34974    -1.01089     0.48810
H      3.13939    -1.40318     0.87321
O      2.58525    -1.12618    -0.90720
H      2.72744    -0.18190    -1.14122
