 40
-1516.649365609636
O      3.60611     1.32119     0.59268
H      3.64944     0.35941     0.73297
O      3.21695     1.34437    -0.78348
H      3.96480     1.78093    -1.20298
O     -2.08364    -1.36873    -3.04304
H     -1.16520    -1.46508    -2.71864
O     -2.12745     0.02974    -3.34067
H     -3.01969     0.23480    -3.02975
O      0.26331     1.89344     2.34459
H     -0.67085     1.97211     2.04363
O      0.92218     2.46420     1.20500
H      1.85483     2.26279     1.38245
O      3.36270    -1.61532     0.09494
H      2.71674    -1.48276    -0.63094
O      2.88327    -2.81836     0.69087
H      3.70164    -3.31330     0.78416
O     -3.48040    -1.33432    -0.75060
H     -3.14995    -1.63165    -1.61927
O     -3.76218     0.03780    -1.08273
H     -3.60042     0.47081    -0.21792
O     -1.20060    -0.77092     1.80643
H     -0.24694    -0.79034     2.04239
O     -1.10589    -1.40337     0.53036
H     -2.02999    -1.38493     0.20133
O     -1.09453     1.55404    -1.31607
H     -1.32366     0.95591    -2.05422
O      0.26328     1.19689    -1.07561
H      0.48356     1.68453    -0.25264
O      1.49218    -0.97684    -1.76868
H      1.19850    -0.05662    -1.59613
O      0.24734    -1.66781    -1.76474
H     -0.05250    -1.56221    -0.83941
O      2.00664    -0.04985     3.01486
H      1.35211     0.66883     2.93941
O      1.41010    -0.93063     2.05572
H      2.08917    -1.60638     1.90152
O     -2.05824     2.09028     1.07125
H     -1.81307     1.93631     0.13632
O     -3.00925     1.05364     1.29287
H     -2.41931     0.36735     1.66886
