 36
-1364.977419049874
O      0.01121     2.45734     1.99929
H     -0.34719     1.56555     1.80468
O      1.41840     2.27272     1.80215
H      1.50080     2.68055     0.91792
O     -2.54827    -3.57586     2.12657
H     -2.93942    -3.30735     2.96141
O     -1.58087    -2.54507     1.95177
H     -0.73554    -3.03057     1.90750
O      1.50578    -2.88418     0.32446
H      0.62920    -2.78040    -0.09097
O      1.15530    -2.93698     1.71440
H      1.40523    -2.02808     1.95889
O     -2.17150    -2.46118    -1.02088
H     -2.41990    -2.49486    -0.08964
O     -0.77553    -2.20749    -0.87312
H     -0.60221    -1.50051    -1.52445
O      1.24650     2.91211    -3.63017
H      1.04953     3.40073    -2.81541
O      0.05369     2.13745    -3.76581
H     -0.31057     2.46429    -4.59363
O      0.74697     3.08689    -0.64806
H      0.44353     2.20384    -0.93645
O     -0.49691     3.70569    -0.31437
H     -0.56200     3.44715     0.62353
O     -1.09115     0.10986     1.40427
H     -1.18049    -0.83715     1.61570
O     -2.22367     0.30105     0.54432
H     -1.77039     0.33905    -0.30935
O      0.20818    -0.20660    -2.41099
H      0.22567     0.54704    -3.02951
O      0.20244     0.54414    -1.19399
H      0.96492     0.16793    -0.69602
O      2.28793    -0.36178     0.21355
H      2.32490    -1.32568     0.05411
O      1.84936    -0.37872     1.58554
H      1.76508     0.58219     1.77018
