 32
-1213.3015322301658
O     -0.35638     1.24879     3.47007
H     -1.02080     1.58671     2.84861
O      0.79893     1.19941     2.62896
H      0.89054     0.24345     2.47488
O     -1.92717    -2.31474    -2.02107
H     -2.59509    -2.99610    -2.13566
O     -0.80155    -3.08049    -1.58395
H     -0.07397    -2.50676    -1.89768
O      0.93736     1.46516    -0.34565
H      0.20608     0.82943    -0.24160
O      0.49432     2.57740     0.42100
H      0.70291     2.25312     1.32997
O     -2.20885     2.62757     1.95869
H     -2.18321     3.57201     2.14462
O     -2.19514     2.58162     0.52954
H     -1.23026     2.61956     0.34635
O      2.82367     0.54461    -2.81095
H      3.32466     0.69204    -3.61791
O      1.72649     1.44751    -2.97255
H      1.53704     1.62924    -2.03927
O      1.16419    -1.32603    -1.91470
H      1.80344    -0.67848    -2.29011
O      2.04352    -2.22020    -1.23291
H      1.63744    -2.22906    -0.35663
O      0.31013    -2.33111     1.27416
H     -0.37326    -1.74028     0.89819
O      0.84942    -1.52551     2.32163
H      0.49690    -1.95536     3.10831
O     -2.46471    -0.33335     0.67519
H     -2.62925     0.57892     0.40292
O     -1.29130    -0.61579    -0.08496
H     -1.63045    -1.16032    -0.83275
