 40
-1516.6350607241154
O      0.56799     2.05000     1.65971
H      1.28227     1.88353     1.02796
O     -0.38471     1.09540     1.20714
H     -0.18700     0.29452     1.74118
O      4.15566    -2.02731     0.91546
H      3.20802    -2.18727     0.74395
O      4.38928    -0.86812     0.12025
H      4.94231    -1.20409    -0.59423
O     -0.33241     1.66097    -2.17095
H     -0.68347     0.74827    -2.28016
O     -1.31477     2.43722    -2.84094
H     -1.68717     2.94024    -2.11179
O     -2.62049     0.94547    -0.21385
H     -1.75957     1.12701     0.21684
O     -2.92568    -0.34711     0.33602
H     -2.82559    -0.88577    -0.47357
O     -3.32753     0.72885    -3.39232
H     -2.64613     1.41741    -3.47978
O     -4.17667     1.31005    -2.39810
H     -3.65196     1.15072    -1.59109
O      2.18661     0.54738    -0.27404
H      3.06865     0.14010    -0.12201
O      2.33546     1.08606    -1.58773
H      1.42060     1.35668    -1.77008
O      2.53596    -0.17390     2.62212
H      3.45054    -0.24978     2.92514
O      1.85380     0.40676     3.74069
H      1.49443     1.20386     3.32679
O     -1.58195    -1.57242     2.91912
H     -2.02852    -1.07477     2.21760
O     -0.24403    -1.12073     2.72171
H      0.06949    -0.91858     3.61642
O      0.68277    -1.64921    -0.11297
H      1.18723    -0.80512    -0.10664
O      1.46124    -2.47558     0.75212
H      1.00873    -2.32478     1.59790
O     -0.96758    -0.89620    -2.22177
H     -0.52941    -1.30494    -1.44818
O     -2.31974    -1.35039    -2.08824
H     -2.77227    -0.70427    -2.67745
