 28
-1061.6485239076683
O      1.38840    -1.21172    -1.86315
H      1.71536    -1.39439    -0.95225
O      1.41091     0.21678    -1.88037
H      0.56345     0.41981    -2.30213
O      0.55678    -1.31748     1.24175
H     -0.01422    -1.80148     0.61504
O      1.87762    -1.54661     0.71786
H      2.33994    -0.79643     1.13430
O      0.14793     1.69699     1.52579
H     -0.57843     1.05158     1.54638
O      0.23171     2.03867     0.14544
H     -0.24449    -1.83532    -1.88434
O     -1.46668     0.80278    -2.19889
H     -1.61130    -0.14325    -2.01776
O     -2.05422     1.41435    -1.04533
H     -1.25653     1.79194    -0.61878
O     -3.07206    -0.44543     0.57843
H     -2.86158     0.27937    -0.05232
O     -2.29482    -0.04319     1.70551
H     -2.97673     0.25355     2.31697
O     -1.28867    -2.39842    -0.43645
H     -2.10230    -1.98781    -0.10642
O     -1.21437    -1.85664    -1.75706
H      0.87615     1.40414    -0.21501
O      2.64260     0.75233     1.94490
H      1.78770     1.22033     1.98832
O      3.40423     1.67049     1.16572
H      4.13068     1.86131     1.76616
