 16
-606.639134428768
O     -2.24783    -1.32745     0.91168
H     -3.04224    -1.32678     1.45339
O     -1.54939    -0.20592     1.45976
H     -1.55795     0.42222     0.69622
O      1.61123     0.17737     1.43335
H      2.02575    -0.02401     2.27686
O      1.00833    -1.08100     1.09292
H      0.07434    -0.91288     1.34288
O      1.76653    -0.14338    -2.48234
H      1.77916    -0.76900    -3.21219
O      0.63124    -0.61116    -1.74727
H      1.03412    -0.90686    -0.91377
O     -1.08179     1.25810    -0.69815
H     -0.47281     0.73173    -1.25033
O     -0.22166     2.21774    -0.08315
H      0.41792     1.65406     0.37385
