 36
-1364.9742388756997
O     -2.52924     0.73464     0.25674
H     -2.18782    -0.02787     0.74620
O     -2.11457     1.82938     1.08162
H     -1.86614     2.48528     0.40299
O     -0.76216    -1.49519     0.71768
H     -0.12202    -0.80922     1.02638
O     -0.57670    -2.52243     1.67838
H     -0.09884    -3.19073     1.16380
O      2.40501    -1.87902     1.04019
H      2.07395    -1.15101     1.58311
O      2.14575    -1.34578    -0.27399
H      2.33605    -2.11895    -0.82755
O      0.34137     0.84277    -1.28143
H      0.66675    -0.07633    -1.31207
O     -0.93093     0.78127    -1.91934
H     -1.52920     0.66837    -1.15558
O     -1.39294     3.61070    -0.77998
H     -1.24651     4.55833    -0.69612
O     -1.58776     3.44374    -2.18915
H     -1.26481     2.53098    -2.28894
O      1.10356     2.96341     0.67728
H      0.50168     3.02808    -0.07724
O      0.44232     3.82391     1.62205
H      0.45098     3.24696     2.39821
O     -0.48085    -2.58419    -1.66868
H     -0.62070    -2.11495    -0.81628
O      0.15109    -1.56894    -2.45518
H     -0.59286    -1.15038    -2.91003
O      0.74780     0.50590     1.57085
H      1.13123     1.27974     1.09735
O     -0.03223     1.14396     2.58394
H     -0.83325     1.37999     2.07291
O      1.32966    -4.47908     0.26979
H      1.96812    -3.97351     0.79032
O      1.71387    -4.09747    -1.05793
H      0.87565    -3.74952    -1.40871
