 36
-1364.9735819084638
O      2.05409     0.60569    -1.38868
H      1.32302    -0.04637    -1.38106
O      1.57608     1.61190    -0.50488
H      1.62822     1.19816     0.38297
O      1.63202    -2.33710     1.30591
H      2.47473    -1.84241     1.24989
O      1.10190    -1.79967     2.52334
H      0.15541    -1.97792     2.41194
O     -2.71641     0.41161    -0.53870
H     -2.11944     1.16345    -0.71291
O     -3.70135     0.53157    -1.56727
H     -3.17817     0.24540    -2.33490
O     -2.85445    -0.99216     2.10993
H     -3.29050    -0.62579     1.32832
O     -1.53261    -1.15385     1.62178
H     -1.12990    -0.27875     1.81102
O     -0.92110     2.46461    -0.78483
H      0.00708     2.19167    -0.95920
O     -0.78148     3.04310     0.51104
H     -1.03175     3.95624     0.34580
O     -0.62769     0.64568    -3.18630
H     -0.38574     0.73623    -4.11494
O     -1.69823    -0.30076    -3.26042
H     -1.35778    -0.99543    -2.66702
O      1.21614     0.81758     2.01568
H      1.29495    -0.09448     2.36022
O     -0.17564     1.05987     2.23226
H     -0.32397     1.83594     1.65736
O      4.09124    -0.74815    -0.25033
H      3.47004    -0.13233    -0.69129
O      3.65664    -0.63040     1.10614
H      4.47506    -0.43355     1.57176
O      0.33811    -1.33766    -0.86595
H      0.66200    -1.85095    -0.09478
O     -0.95006    -1.87620    -1.13687
H     -1.48061    -1.35840    -0.50383
