 40
-1516.6387725504126
O      0.58703     2.05454    -1.69316
H     -0.33597     2.24868    -1.97522
O      0.30144     1.47685    -0.41636
H      1.19917     1.14815    -0.17676
O      0.37752     0.10092     2.25572
H      0.00732    -0.38797     1.48058
O      1.41773    -0.77097     2.68336
H      2.09620    -0.63315     1.98516
O     -0.06954    -2.96597     2.60859
H      0.56811    -2.22904     2.75945
O      0.68765    -3.82581     1.76136
H      0.76605    -4.61228     2.30932
O     -0.84085     3.04000     1.43433
H     -0.38831     2.53254     0.73322
O     -1.54055     2.01370     2.14815
H     -0.81585     1.42532     2.43601
O     -3.98513     0.45969     0.21695
H     -3.83041    -0.41488     0.59866
O     -2.63567     0.88252     0.05068
H     -2.43007     1.39637     0.88111
O      2.96825     0.06235    -2.82781
H      3.24713     0.65161    -3.53522
O      1.55883    -0.03145    -3.03168
H      1.22220     0.75394    -2.53888
O     -2.49372     3.63263    -1.99071
H     -3.12113     3.72041    -2.71274
O     -2.03521     2.29710    -2.18649
H     -2.42844     1.83488    -1.41824
O      2.99181    -0.67399     0.51672
H      2.56903    -1.37921    -0.02238
O      2.71976     0.51120    -0.23505
H      3.02002     0.27392    -1.13768
O     -2.02658    -1.78761     1.14398
H     -1.46762    -2.29361     1.76035
O     -0.98477    -1.17140     0.36297
H     -1.48401    -0.41058    -0.00171
O      1.37512    -2.91990    -2.10664
H      1.27845    -2.03296    -2.47940
O      1.71160    -2.61019    -0.76229
H      0.88493    -2.75151    -0.27717
