 36
-1364.9823047223117
O     -0.00247     1.16086     0.61515
H      0.71006     0.96652     1.26650
O      0.59455     2.17730    -0.19641
H      0.35946     1.84382    -1.08870
O     -1.69389    -0.97091    -1.63280
H     -2.11200    -0.22764    -1.15269
O     -1.86371    -0.52345    -2.98010
H     -1.89536    -1.35892    -3.45646
O      2.03509     0.61143     2.30095
H      2.78897     0.89733     1.76188
O      2.17650    -0.81123     2.27089
H      1.24212    -1.07041     2.40422
O      1.27965     0.22967    -2.79620
H      2.02528     0.79384    -2.53449
O      0.17233     1.11736    -2.59280
H     -0.58091     0.54524    -2.84597
O     -3.29621    -1.35725     1.04941
H     -2.41546    -1.70404     0.80270
O     -2.96810    -0.77638     2.32405
H     -2.93565     0.16155     2.05180
O     -2.64540     1.40309     0.86240
H     -1.67980     1.34523     0.71461
O     -3.15830     0.94970    -0.39718
H     -3.77623     0.27200    -0.08471
O      3.22743     1.79364     0.02650
H      2.30341     2.09480    -0.08099
O      3.40414     1.04460    -1.17935
H      3.29920     0.13109    -0.84930
O      2.64837    -1.36729    -0.28866
H      2.57819    -1.28265     0.68509
O      1.25748    -1.42305    -0.62670
H      1.21019    -0.89040    -1.44647
O     -0.40381    -1.45915     2.29612
H     -1.29233    -1.18042     2.59809
O     -0.75318    -2.03383     1.03146
H     -0.00487    -1.74407     0.46961
