 36
-1364.979565576487
O     -3.41006     1.84939    -0.42770
H     -2.58312     1.83945    -0.96056
O     -3.44322     0.49068     0.00367
H     -4.10545     0.09707    -0.57442
O     -1.08027    -1.73414    -0.15780
H     -0.60065    -2.28936     0.49446
O     -0.98809    -0.47542     0.51784
H     -1.88225    -0.10441     0.36084
O      1.78958    -0.50979     2.48642
H      1.63809     0.38438     2.11253
O      3.01706    -0.89713     1.84228
H      3.00765    -1.83807     2.06700
O      0.29752    -1.67305    -2.44283
H     -0.30741    -1.60228    -1.67805
O      0.73256    -0.32162    -2.61959
H      1.45109    -0.28039    -1.95801
O     -1.09919     1.72863    -3.18310
H     -0.70278     0.86084    -3.35077
O     -1.12963     1.70613    -1.75953
H     -0.24209     1.99795    -1.49068
O     -1.11662     3.29590     0.86352
H     -1.11222     4.25749     0.80987
O     -2.14303     3.03293     1.82277
H     -2.84067     2.71734     1.22509
O      0.94721     1.23249     0.08094
H      0.27991     0.52445     0.23486
O      1.03931     1.81154     1.37816
H      0.23335     2.36692     1.37496
O      2.26482    -2.53638    -0.89912
H      1.58699    -2.53593    -1.60358
O      2.48629    -1.12109    -0.81633
H      2.69582    -0.98984     0.12652
O      1.63794    -3.30083     1.59464
H      1.76582    -3.13870     0.64116
O      0.39024    -2.64532     1.83049
H      0.71230    -1.78778     2.17568
