 40
-1516.640407563519
O      1.94049     0.81382     1.64068
H      2.17482    -0.08522     1.30859
O      2.43146     1.64750     0.58205
H      1.89955     2.45786     0.72440
O     -0.33624     2.64868    -1.94806
H     -0.72967     3.09450    -2.70161
O     -0.52247     1.28797    -2.29523
H      0.41534     0.98590    -2.29129
O     -1.79755    -0.26748    -0.54710
H     -1.53261     0.22140    -1.35018
O     -0.58491    -0.09759     0.20321
H     -0.90223    -0.12961     1.12820
O     -1.68736    -1.69390     2.23038
H     -2.26125    -2.18236     1.62782
O     -2.64412    -0.95328     3.00689
H     -2.03289    -0.38326     3.48839
O      0.72310     3.62648     1.14532
H      0.56756     3.44809     2.08532
O     -0.60025     3.38773     0.64191
H     -0.41608     2.97934    -0.21889
O      2.54396    -0.61013    -1.98613
H      1.82249    -1.08788    -2.43723
O      2.00593     0.70357    -1.88852
H      2.24246     0.97930    -0.97481
O     -0.64685    -1.75227    -2.95652
H     -0.99896    -2.44341    -2.35514
O      0.69608    -2.20124    -3.13881
H      0.67987    -2.52215    -4.04613
O      1.08996    -2.09823     0.10624
H      0.51948    -1.29957     0.10275
O      2.36244    -1.56034     0.47935
H      2.71504    -1.32666    -0.40406
O     -2.55512    -2.82162    -0.38617
H     -2.36398    -1.87509    -0.54023
O     -1.40027    -3.42396    -0.96638
H     -0.67735    -3.19124    -0.35894
O     -0.69268     2.27181     3.25210
H     -1.36768     2.45422     2.58587
O     -0.38722     0.90676     2.96056
H      0.48820     0.97516     2.52665
