 40
-1516.6371021477305
O      0.49993     2.82543    -1.33287
H     -0.17051     2.86941    -0.62012
O      1.45243     1.89611    -0.81636
H      0.98673     1.05177    -0.95227
O     -0.86489     0.12275     1.54869
H     -0.73430    -0.51047     0.79995
O     -2.09568    -0.38968     2.06409
H     -1.76012    -1.21389     2.48844
O      2.35253    -0.89983     0.72456
H      2.03889    -1.00523     1.64283
O      3.26404     0.19664     0.85540
H      2.87507     0.81409     0.21910
O     -0.78982    -2.45324     3.10293
H      0.08176    -2.13219     3.38818
O     -0.42755    -3.37633     2.06455
H     -0.59653    -2.85405     1.26147
O     -2.60041     2.59114     0.02881
H     -3.23303     2.78586     0.72815
O     -1.34326     2.68563     0.70190
H     -1.22071     1.77735     1.05393
O      2.87272    -1.04359    -1.88949
H      2.86231    -1.16358    -0.92331
O      1.48434    -0.73175    -2.06517
H      1.49676    -0.11608    -2.81373
O     -1.06818     0.34897    -1.77643
H     -1.12267     0.75515    -2.65987
O     -2.43923     0.28349    -1.36152
H     -2.49932     1.10929    -0.84351
O     -0.53015    -1.80714    -0.16993
H      0.09600    -1.77856    -0.91731
O     -1.74888    -2.23947    -0.77691
H     -2.17143    -1.37414    -0.92750
O      0.76745     0.03027     3.64348
H      0.22694     0.09572     2.82910
O      1.57907    -1.10895     3.32524
H      2.27951    -1.03529     3.98070
O     -0.72191     1.68200    -4.06863
H     -0.67372     1.44180    -4.99734
O      0.64443     1.56044    -3.67461
H      0.66038     2.18965    -2.92334
