 36
-1364.9794796566234
O      3.22636     1.15776    -1.60914
H      2.98444     0.49849    -0.92716
O      2.40215     2.24998    -1.20078
H      3.04315     2.91288    -0.92414
O     -2.41443    -2.51852     0.85461
H     -2.96123    -2.22057     0.11356
O     -2.71702    -1.53668     1.85435
H     -1.84713    -1.40245     2.25030
O      2.32708    -0.04916     1.46820
H      2.31175     0.90884     1.31808
O      2.18378    -0.55163     0.14075
H      1.38542    -1.12877     0.19951
O     -0.09675    -0.05949    -3.52974
H     -0.98862    -0.14879    -3.12664
O      0.70332    -0.05303    -2.33813
H      1.55158     0.30700    -2.64152
O     -2.36062    -0.27856    -2.12739
H     -2.17215     0.05417    -1.22898
O     -2.69569    -1.64436    -1.88862
H     -1.80416    -2.03964    -1.86684
O     -1.55034     0.81739     0.16012
H     -1.34315     0.55398     1.08367
O     -0.47521     1.69853    -0.15567
H     -0.08199     1.25570    -0.92710
O      0.74813     2.63136     2.78115
H      0.44612     3.53385     2.91992
O      1.33682     2.68939     1.48928
H      0.60407     2.39375     0.90508
O      0.15106    -0.72178     2.89204
H      0.96651    -0.50145     2.39422
O     -0.68895     0.40097     2.63937
H     -0.13395     1.15783     2.90665
O     -0.14661    -2.35412    -1.42672
H      0.29262    -1.56145    -1.79741
O      0.05049    -2.12487    -0.02461
H     -0.85057    -2.30951     0.33629
