 32
-1213.3182373227173
O      0.12264     0.03169     1.54553
H     -0.06781     0.81414     0.97235
O      1.53318    -0.10517     1.40293
H      1.59992    -0.69143     0.61866
O     -1.74913    -0.85898    -0.85933
H     -0.89224    -1.31231    -0.99458
O     -1.80705     0.06296    -1.95337
H     -1.98901     0.88611    -1.45478
O      3.24583     1.23600    -0.75362
H      4.17690     1.47814    -0.70834
O      2.67635     2.02335     0.29205
H      2.30062     1.30667     0.84865
O     -0.46868     2.16479     0.06434
H     -0.04586     2.09275    -0.81922
O     -1.86405     2.11918    -0.25316
H     -2.21464     1.77845     0.59872
O      0.98932     1.64620    -2.10790
H      1.89036     1.53604    -1.73823
O      0.75321     0.34928    -2.67789
H     -0.22625     0.28212    -2.61704
O      1.66328    -1.44660    -0.90885
H      1.45615    -0.80998    -1.62709
O      0.50953    -2.29683    -0.97239
H      0.55467    -2.75422    -0.10487
O      0.42226    -3.26240     1.50173
H      0.21093    -4.08464     1.95232
O     -0.78101    -2.52495     1.67397
H     -0.42260    -1.62384     1.79497
O     -2.68415     1.00340     2.01285
H     -2.27365     1.01717     2.88402
O     -3.00554    -0.37481     1.84503
H     -2.59849    -0.54114     0.98243
