 24
-909.9737938456759
O     -2.65468    -0.25603    -0.50170
H     -2.65755     0.38737     0.24671
O     -2.49270    -1.51713     0.14197
H     -1.77533    -1.33506     0.76844
O      2.34804    -2.30767    -1.68307
H      2.28064    -3.26568    -1.64096
O      1.45755    -1.93486    -0.63606
H      0.75297    -1.46894    -1.14448
O      2.68144     0.05101     0.69484
H      2.23947    -0.76250     0.37567
O      2.64780     0.83369    -0.50176
H      3.33334     0.43349    -1.04702
O     -2.00016     2.71553     0.56085
H     -1.49701     2.35709    -0.18478
O     -2.18608     1.56032     1.38160
H     -1.33380     1.47912     1.85580
O      0.35461     0.85902     2.12225
H      1.31900     0.82500     1.98114
O     -0.07929    -0.33997     1.45767
H     -0.13325    -0.04192     0.53694
O      0.06422     1.03669    -1.20782
H      1.02460     0.92592    -1.03246
O     -0.31347    -0.27562    -1.66811
H     -1.26674    -0.30685    -1.39871
