 16
-606.6397248062724
O     -2.20733     0.02184    -0.12824
H     -2.41740     0.44198    -0.96843
O     -1.93723    -1.33692    -0.50658
H     -0.99708    -1.27749    -0.79488
O      0.61973    -1.05349    -1.24947
H      1.05761    -0.18897    -1.10502
O      1.27036    -1.90149    -0.30357
H      0.92468    -1.56663     0.53380
O      1.58074     1.33612    -0.37110
H      1.04263     1.33418     0.44299
O      0.80134     2.19843    -1.20729
H      1.46965     2.83938    -1.46918
O     -0.29051     0.82183     1.52740
H     -1.01744     0.46631     0.96331
O      0.15706    -0.35477     2.19830
H     -0.21088    -0.22514     3.07608
