 24
-909.9835568852097
O     -2.23830    -0.13727     0.02911
H     -2.31432    -1.03793    -0.32278
O     -1.47519    -0.38760     1.21432
H     -1.14802     0.50104     1.42847
O     -0.35951    -2.80631    -0.81301
H     -0.28003    -3.70259    -1.15648
O     -1.41409    -2.28289    -1.62316
H     -0.94332    -1.56480    -2.09052
O      1.38374     1.90378    -0.55611
H      0.51711     1.90881    -1.01007
O      1.86497     0.62084    -0.98073
H      1.68545     0.06107    -0.19158
O     -0.17297    -0.03658    -2.52925
H      0.73058     0.02259    -2.15643
O     -0.77138     1.06918    -1.83693
H     -1.30379     0.61541    -1.14946
O      1.24393    -1.06502     0.93796
H      0.34156    -1.41902     0.85473
O      1.40235    -0.88484     2.34496
H      1.30885     0.07989     2.40143
O      0.97479     1.83108     2.08366
H      1.27134     1.98305     1.16181
O     -0.43026     2.00693     1.90958
H     -0.64353     2.59215     2.64250
