 24
-909.9779858750762
O     -1.68977    -1.66555     1.08328
H     -1.67178    -0.71446     0.84855
O     -1.52238    -2.25904    -0.20687
H     -2.42999    -2.37895    -0.50622
O      0.41582    -0.98203    -1.52618
H     -0.28679    -1.46637    -1.03924
O     -0.33572     0.05129    -2.18254
H      0.33808     0.75833    -2.27619
O      2.30183     0.23069    -0.08726
H      1.63764    -0.27439    -0.60043
O      1.43918     0.88799     0.84415
H      1.31348     0.21141     1.54194
O     -1.89018     0.66730    -0.15553
H     -1.49008     0.48694    -1.03246
O     -2.16772     2.05531    -0.23357
H     -1.31720     2.40609    -0.53231
O      0.78471    -2.18468     2.28532
H     -0.15748    -2.27975     2.08552
O      0.77849    -0.85349     2.80911
H      1.15975    -0.97449     3.68264
O      0.64478     2.55536    -1.03869
H      0.89214     1.98688    -0.27854
O      1.48401     2.04147    -2.07659
H      2.22803     1.67104    -1.57513
