 32
-1213.303255441592
O      1.29165    -2.46774     1.68312
H      1.51645    -2.48051     0.72400
O      0.24256    -3.43437     1.74891
H      0.61869    -4.08182     2.35124
O     -0.68754    -0.80688    -3.16167
H     -0.91481    -1.07617    -2.24789
O      0.43560    -1.67274    -3.37079
H      0.88819    -1.22327    -4.08955
O     -1.88738    -2.19534    -0.16515
H     -1.23818    -2.61040     0.41536
O     -1.12914    -1.05444    -0.57724
H     -1.65235    -0.30051    -0.25948
O     -1.85687     1.59528    -1.04618
H     -1.76336     2.16905    -0.26652
O     -0.59076     1.77579    -1.69849
H     -0.63883     1.09284    -2.38527
O      1.03141     3.57627     0.56239
H      0.44198     3.32816     1.28438
O      1.39785     2.29722     0.06196
H      0.69539     2.10622    -0.59206
O      2.01494    -0.67666    -0.63159
H      1.24156    -0.31641    -0.16950
O      1.58270    -2.00882    -0.91699
H      1.20525    -1.91783    -1.81334
O     -1.71817     2.65260     1.40032
H     -2.38534     3.13182     1.89922
O     -1.97830     1.30867     1.78929
H     -1.07426     0.94016     1.80187
O      1.50465     0.83998     2.28324
H      1.73052     1.34537     1.47659
O      0.41153     0.08609     1.74587
H      0.68624    -0.83289     1.93712
