 24
-909.97782608912
O     -1.99945    -2.50886     0.64691
H     -2.82841    -2.96648     0.80974
O     -2.38826    -1.14642     0.82743
H     -1.59014    -0.80186     1.27258
O     -0.55707    -1.64654    -1.41843
H     -1.12881    -2.07692    -0.74878
O      0.74395    -2.05763    -0.98326
H      1.30497    -1.35425    -1.35494
O      2.57917    -0.12426    -1.37304
H      3.51895    -0.29675    -1.25252
O      2.31058     0.84794    -0.36296
H      1.89531     0.29679     0.33602
O     -0.05271     1.64958    -1.99267
H      0.68910     1.77914    -1.38739
O     -0.99506     0.99316    -1.14507
H     -0.83331     0.04363    -1.33030
O     -0.13665    -0.13456     1.83990
H      0.05176     0.81486     1.68085
O      1.05646    -0.77742     1.37843
H      0.72059    -1.42643     0.73278
O      0.29538     2.40674     1.30137
H      0.49283     3.21769     1.78157
O     -1.09094     2.57710     0.99592
H     -1.12869     2.08252     0.14907
