 16
-606.6357498917365
O      0.06794     1.48724     0.85180
H     -0.50877     1.41839     0.05764
O     -0.66567     2.42441     1.63962
H     -0.03800     3.15200     1.68799
O     -0.39985    -0.83373     2.18266
H     -0.13207     0.02560     1.80335
O      0.50499    -1.72456     1.51565
H      1.04407    -2.04653     2.24475
O     -0.60686     0.51986    -2.27915
H      0.04865     0.01401    -1.75674
O     -1.47603     1.00337    -1.24628
H     -2.22898     0.40684    -1.30377
O      1.27735    -1.87207    -1.67964
H      1.86941    -1.56155    -2.36895
O      1.26529    -0.73158    -0.82155
H      0.98463    -1.14023     0.02521
