 24
-909.9814919052934
O     -1.64902    -0.47944    -1.90477
H     -1.76598    -1.31534    -2.36817
O     -2.62562    -0.53892    -0.86907
H     -2.04422    -0.74007    -0.10388
O      1.28500    -2.39427     0.35747
H      1.66073    -3.13942     0.83734
O      2.44736    -1.68053    -0.05795
H      2.47151    -0.97498     0.63589
O      0.62042     0.64639    -1.18449
H     -0.25359     0.26171    -1.42240
O      1.47144    -0.03540    -2.11003
H      1.92213    -0.64463    -1.50547
O     -1.53443     2.04192     0.37701
H     -1.02274     2.70526    -0.10208
O     -2.86963     2.24752    -0.07623
H     -3.00113     1.43265    -0.58327
O      2.20442     1.37941     0.84576
H      1.63924     1.11935     0.09082
O      2.08231     0.24872     1.70642
H      1.13462     0.27705     1.95205
O     -0.88766    -1.06767     1.05453
H     -0.01073    -1.43331     0.81457
O     -0.57750     0.06755     1.85951
H     -0.98219     0.78465     1.33147
