 36
-1364.9735557797114
O      2.78689    -0.52514    -1.53590
H      2.55996    -0.73511    -0.60478
O      1.72902     0.34950    -1.92793
H      0.96724    -0.26231    -2.02295
O     -0.27808    -2.66571     0.41621
H     -0.39756    -2.47218    -0.52503
O     -1.19298    -1.74226     1.01188
H     -0.57599    -1.18994     1.53158
O     -2.04235     0.68781    -1.15929
H     -1.40841     1.30256    -0.74374
O     -2.76937     0.23029    -0.01648
H     -2.30646    -0.60249     0.18156
O     -2.09267     1.68691     3.52508
H     -1.51922     1.51388     4.27684
O     -1.44259     0.89785     2.52356
H     -2.11366     0.89759     1.82468
O     -0.41174    -1.25653    -2.12838
H     -1.18253    -0.65375    -2.10506
O     -0.41358    -1.79552    -3.45044
H      0.44149    -2.25119    -3.41333
O     -0.44689     4.15745     1.92725
H     -0.45111     5.11456     1.83596
O     -1.84510     3.85717     1.91038
H     -1.87444     3.18341     2.60901
O      1.14663     1.72315     0.30198
H      1.41031     1.47953    -0.60984
O     -0.19048     2.19632     0.11664
H     -0.25340     2.89820     0.79489
O      2.01773    -1.40983     0.88366
H      1.43695    -2.16380     0.67335
O      1.10681    -0.60526     1.63437
H      1.16747     0.26843     1.19251
O      1.95792    -3.47885    -1.49838
H      2.61773    -4.17560    -1.56335
O      2.09688    -2.80519    -2.75063
H      2.51902    -1.97000    -2.44951
