 24
-909.9785601563874
O     -1.15539    -1.58749     0.31250
H     -0.21459    -1.59276     0.04676
O     -1.19289    -0.50057     1.24386
H     -0.65857    -0.85034     1.97830
O      0.09982     0.47183    -2.44518
H     -0.71675    -0.07640    -2.49367
O     -0.44381     1.63978    -1.80999
H      0.33448     2.00830    -1.36697
O      1.95191    -0.37357    -0.74188
H      1.26673    -0.22486    -1.43176
O      1.48428    -1.57606    -0.12186
H      1.88090    -1.49032     0.75662
O     -2.22694    -0.71663    -2.06474
H     -2.12248    -1.03876    -1.14750
O     -3.21304     0.30960    -1.94917
H     -2.65033     1.09540    -1.92115
O      1.82727    -0.45030     2.52216
H      1.47018     0.41301     2.22247
O      0.66575    -1.04887     3.09434
H      0.73710    -0.80697     4.02333
O      1.46548     2.06828     0.29451
H      1.88479     1.22093     0.05653
O      0.66739     1.68020     1.41237
H     -0.08169     1.21108     1.00585
