 20
-758.3032655516487
O     -1.15084    -0.56223     2.48429
H     -0.91567    -1.18913     3.17281
O     -1.49831    -1.44035     1.41401
H     -0.70487    -1.39089     0.83865
O      0.55532    -1.07829    -0.28455
H      1.10845    -0.50640     0.28835
O     -0.14375    -0.08591    -1.05086
H     -0.93960    -0.58057    -1.33752
O      1.42604     0.46433     1.71052
H      0.51783     0.48269     2.04431
O      1.58092     1.81363     1.25116
H      2.00252     1.64875     0.38686
O      1.77083     1.57861    -2.02113
H      1.09894     0.95505    -1.69533
O      2.80967     1.28541    -1.08100
H      3.52972     1.82393    -1.42212
O     -2.42191    -1.33892    -1.56085
H     -3.01108    -1.43308    -2.31525
O     -3.10690    -0.36298    -0.77343
H     -2.83994    -0.66795     0.10559
