 40
-1516.6413961564383
O      0.96176     4.39349    -1.34077
H      0.44387     4.13956    -0.56426
O      1.28020     3.14186    -1.93845
H      0.40703     2.72151    -2.05257
O     -1.88769     0.28421     2.23764
H     -1.77507    -0.66220     2.45804
O     -0.55091     0.75370     2.44329
H     -0.69536     1.72211     2.48546
O      2.02074    -2.18479    -1.54720
H      1.50746    -2.54347    -2.28795
O      1.33302    -2.86410    -0.48578
H      1.27401    -2.16421     0.20065
O     -0.74192     1.42200    -0.29365
H      0.16358     1.03652    -0.35950
O     -0.99987     1.70475    -1.67746
H     -1.35480     0.82799    -1.92962
O      1.14066    -1.04424     1.47113
H      0.54959    -0.30694     1.75458
O      2.41017    -0.60828     1.94984
H      2.61767     0.07631     1.29864
O      2.79898     1.44736    -0.50550
H      2.42932     2.19740    -1.01264
O      1.71087     0.53581    -0.66500
H      2.11447    -0.25127    -1.07448
O     -1.01742     3.73861     0.90173
H     -1.08766     2.84451     0.50125
O     -1.02572     3.41178     2.29248
H     -1.84296     3.82497     2.58913
O     -1.68024    -0.84801    -1.54501
H     -1.44516    -1.78309    -1.70862
O     -2.38865    -0.95779    -0.30146
H     -2.08893    -0.15114     0.14799
O     -1.31468    -2.90207     1.15935
H     -1.81311    -2.22439     0.65817
O     -1.24532    -2.30441     2.46027
H     -0.28792    -2.22319     2.56813
O     -0.83842    -3.47065    -1.79127
H     -0.16992    -3.46333    -1.07109
O      0.01807    -3.35340    -2.93159
H     -0.00363    -4.25108    -3.28044
