 20
-758.3044007375256
O     -3.25416    -0.63079     0.73658
H     -2.77680     0.10427     1.14252
O     -2.28505    -1.66601     0.92017
H     -2.83239    -2.45525     0.87816
O      1.95412     0.20682    -2.64398
H      1.33548    -0.38893    -2.17839
O      3.04673     0.20883    -1.71137
H      3.67074     0.78339    -2.16448
O     -1.48276     1.65522     0.91300
H     -0.98515     1.24716     0.18417
O     -0.65168     1.34964     2.03169
H     -0.20453     2.18576     2.19660
O      1.32443    -0.22491     1.15272
H      0.55753     0.17067     1.59875
O      1.90994     0.97561     0.61574
H      2.29295     0.63952    -0.21686
O     -0.85754    -0.46722    -0.98961
H     -1.44419    -1.01305    -0.43393
O      0.30909    -1.30333    -1.06406
H      0.71893    -1.10083    -0.19454
