 32
-1213.3064889390002
O      1.47662     1.92596     1.52646
H      1.13331     1.02939     1.69873
O      0.29289     2.65587     1.20237
H      0.10944     2.36069     0.28264
O     -1.29656    -2.88939    -2.80957
H     -1.69612    -2.84108    -3.68379
O     -1.62891    -1.60668    -2.29104
H     -0.77377    -1.14633    -2.29105
O      0.24751     0.39878    -1.45618
H      1.15710     0.72307    -1.26880
O     -0.55918     1.50072    -1.02782
H     -1.31845     1.01925    -0.64658
O     -2.21463    -1.18255     0.31461
H     -2.21480    -1.45312    -0.62214
O     -2.55975     0.19804     0.16096
H     -2.70614     0.48766     1.07449
O      2.65366     1.38273    -0.80782
H      2.43575     1.82404     0.03747
O      3.62049     0.42204    -0.36323
H      3.17890    -0.41318    -0.59242
O      1.58776    -2.20585    -1.80744
H      1.70922    -3.14947    -1.95096
O      2.33754    -1.97367    -0.61919
H      1.61755    -1.84509     0.02730
O      0.58397    -0.54602     2.08574
H      0.60061    -1.04992     2.90386
O      0.33673    -1.55669     1.12135
H     -0.59429    -1.38353     0.85623
O     -1.68787     1.48033     2.59943
H     -0.99306     2.02073     2.16086
O     -2.87133     2.17991     2.20436
H     -3.36791     2.15142     3.02576
