 32
-1213.3141130222768
O      1.66392     1.76407     1.44275
H      1.35887     0.83318     1.45584
O      1.42530     2.11753     0.08322
H      2.22056     1.76304    -0.36652
O      0.06262    -1.81071    -0.74711
H      0.51402    -1.60129    -1.59235
O     -1.24511    -2.10494    -1.23402
H     -1.69842    -2.34365    -0.40380
O     -3.24239    -0.99431     1.19818
H     -3.36025    -0.77147     2.12789
O     -2.35831    -2.11256     1.25088
H     -1.58688    -1.73785     1.73625
O     -0.51878     1.25407    -1.58153
H      0.10329     1.60855    -0.91535
O     -1.47331     0.58879    -0.75557
H     -1.51164    -0.31881    -1.11012
O     -0.35799    -0.83472     2.42304
H     -0.58861     0.11357     2.56965
O      0.77564    -0.72717     1.56055
H      0.44429    -1.10853     0.71360
O      2.79571    -0.55755    -0.58820
H      3.19147    -0.38734     0.27465
O      3.16122     0.62635    -1.30580
H      2.70194     0.45510    -2.14396
O      0.96970    -1.21691    -3.16718
H      0.61470    -1.45337    -4.03215
O      1.23557     0.17761    -3.29572
H      0.49387     0.55754    -2.77669
O     -0.96266     1.72711     2.65506
H     -0.29114     2.30897     2.26296
O     -2.13337     1.94876     1.87558
H     -1.96059     1.40863     1.08544
