 40
-1516.6469315565
O      2.57857     3.09600    -1.20308
H      2.00250     2.59211    -1.80199
O      2.86180     2.09848    -0.22108
H      2.13549     2.22539     0.42353
O     -1.47880    -1.50926     0.09277
H     -0.57404    -1.50690     0.48645
O     -1.25572    -2.02561    -1.21427
H     -1.05842    -1.21139    -1.70901
O     -2.64963     1.39086     1.23854
H     -2.93740     1.70254     0.35717
O     -3.26360     0.10679     1.33275
H     -2.63078    -0.45699     0.84458
O     -0.10692     1.15847     0.60912
H     -0.99470     1.32215     1.00922
O      0.77528     1.84878     1.49357
H      1.08699     1.07035     1.99239
O     -2.75323     2.46580    -1.23766
H     -3.34455     3.10995    -1.63727
O     -2.72600     1.41367    -2.19669
H     -1.79889     1.45096    -2.47474
O      0.03223     0.54671    -1.94975
H      0.07940     0.83652    -1.01298
O      1.11354     1.23774    -2.56784
H      1.78983     0.53121    -2.50255
O      2.94402    -0.56949    -0.48779
H      3.06308     0.40669    -0.48763
O      2.60116    -0.82612    -1.85637
H      2.13810    -1.68363    -1.77497
O      1.08835    -0.68624     2.24421
H      0.20707    -0.87419     2.63772
O      0.98298    -1.45132     1.04434
H      1.71825    -1.08252     0.49721
O      1.45848    -4.07064    -0.50662
H      1.60254    -3.50805     0.26627
O      1.19079    -3.09703    -1.50996
H      0.22378    -2.97324    -1.43621
O     -1.86690    -0.12307     3.67130
H     -2.57881     0.05399     3.02855
O     -1.32699    -1.31516     3.10306
H     -1.64571    -2.00861     3.69074
