 32
-1213.3003353054646
O      1.91500     0.24308     2.03925
H      1.55004     1.14396     2.00971
O      3.16659     0.46018     1.39044
H      3.70960    -0.22442     1.79186
O      0.23579    -1.84588    -0.24617
H      0.78080    -1.08190    -0.53858
O     -0.98159    -1.63764    -0.98707
H     -1.63006    -2.07427    -0.39113
O     -1.14155     1.49751    -0.82061
H     -1.08405     0.54827    -1.03013
O     -0.37652     2.12236    -1.85104
H      0.50726     1.76926    -1.66563
O      0.88236     2.70581     1.85789
H      1.19734     3.61239     1.78739
O     -0.53295     2.82686     1.81321
H     -0.72415     2.44914     0.93793
O      1.79706     0.24823    -0.86483
H      2.40194     0.35188    -0.09698
O      2.64252    -0.31969    -1.87545
H      1.95723    -0.51222    -2.53902
O      0.44539    -0.48396    -3.41506
H      0.00544    -0.04921    -4.15229
O     -0.01065    -1.83946    -3.52866
H     -0.49060    -1.90988    -2.68557
O     -1.08763    -0.21141     1.71885
H     -0.41011    -0.89431     1.58356
O     -0.94103     0.13774     3.09685
H     -0.80699     1.08904     2.99678
O     -3.35281    -1.27200     0.83657
H     -2.61557    -0.78941     1.26311
O     -2.74592    -2.56817     0.75507
H     -3.51808    -3.14066     0.73957
