 28
-1061.6531702686643
O     -0.12106     1.60417     0.89820
H     -0.34709     0.88487     1.52096
O     -1.38723     1.88125     0.30400
H     -1.14114     2.06405    -0.61725
O      1.65681     1.29247    -1.05225
H      1.12472     1.47759    -0.24994
O      2.39996     0.14501    -0.64027
H      1.81014    -0.58420    -0.91101
O      0.04604    -1.61068     1.88887
H      0.87847    -1.11291     2.01003
O     -0.90387    -0.59940     2.23607
H      0.22554    -1.31307    -2.06492
O     -1.23091     1.24247    -2.44452
H     -1.82487     0.52634    -2.14571
O     -0.10404     0.48584    -2.90187
H      0.61172     0.89956    -2.38034
O     -2.82238    -0.36648     0.14667
H     -2.39930     0.51077     0.17293
O     -2.57477    -0.74109    -1.21014
H     -1.93939    -1.47033    -1.07428
O     -0.49049    -2.30537    -0.63650
H     -0.24103    -2.16099     0.29995
O      0.64460    -1.77441    -1.32157
H     -1.67173    -0.86307     1.70701
O      2.40338     1.12692     2.66253
H      3.07134     0.90944     3.31664
O      2.27588    -0.12336     2.00787
H      2.52065     0.09885     1.08252
