 40
-1516.6469344596946
O      2.17053    -0.11535    -1.04111
H      2.46349     0.37133    -0.24235
O      2.05636    -1.44929    -0.53652
H      1.41731    -1.86778    -1.15884
O     -0.21005    -1.10059     1.27253
H     -0.42766    -2.05323     1.17563
O      1.07500    -1.15195     1.88068
H      1.59668    -1.42168     1.09292
O      2.63193     4.03599     1.27304
H      3.23311     4.58393     1.78934
O      1.45085     4.05807     2.08135
H      1.39410     3.11000     2.29379
O     -0.24542     2.64751     0.10008
H     -0.03805     2.54739    -0.84727
O     -0.65658     4.01341     0.20807
H      0.00956     4.30826     0.84370
O     -1.27787    -4.10549    -0.27854
H     -2.04746    -3.50960    -0.41557
O     -0.83007    -3.68820     1.01393
H     -1.50190    -4.05072     1.60247
O      1.93401     1.39506     2.14155
H      1.57182     0.48201     2.09988
O      2.93569     1.37092     1.11502
H      2.98414     2.32586     0.93091
O     -2.36333     1.09097     0.25860
H     -1.64521     1.76590     0.26035
O     -1.73278     0.06339    -0.51226
H     -1.09332    -0.31999     0.14405
O     -3.13401    -2.15861    -0.26770
H     -2.68366    -1.36965    -0.64383
O     -3.24660    -1.80222     1.11518
H     -3.70065    -0.94957     1.08317
O     -0.86397    -2.02805    -2.30285
H     -0.48041    -1.23043    -2.72375
O      0.32450    -2.79273    -2.04543
H     -0.07220    -3.53114    -1.55095
O     -0.45614     1.29785    -2.44570
H     -1.05014     0.79721    -1.84565
O      0.35599     0.25103    -2.98104
H      1.11558     0.25093    -2.36667
