 20
-758.3051386267203
O      1.11448    -2.40528     1.38781
H      1.45690    -3.17637     1.84953
O      0.69288    -2.97755     0.14111
H     -0.10431    -2.44015    -0.02265
O      1.92655    -0.32193    -0.03370
H      1.81674    -1.13720     0.50549
O      3.31507    -0.02579     0.08448
H      3.30901     0.69033     0.72487
O      0.43925     1.63271     1.03882
H      0.89674     0.92258     0.55995
O     -0.89612     1.11549     1.07297
H     -1.36348     1.77873     0.52753
O     -1.16864    -1.06736    -0.37736
H     -1.11714    -0.36085     0.30467
O     -0.62373    -0.37120    -1.50562
H      0.32298    -0.40205    -1.29685
O     -2.33984     2.65683    -0.57035
H     -3.30171     2.69511    -0.54915
O     -2.07081     2.28395    -1.92106
H     -1.71842     1.38950    -1.79975
