 40
-1516.6425893327107
O      3.22607    -1.26849    -1.24694
H      3.51677    -1.36278    -0.31612
O      3.00012     0.14537    -1.25866
H      2.02664     0.21516    -1.32230
O      0.69760     1.75669     1.27815
H      1.58245     1.57432     1.63530
O      0.30050     2.94225     1.97921
H     -0.51134     2.62182     2.39817
O     -1.89835     1.12375     2.63677
H     -1.89192     0.78084     1.71490
O     -1.18064     0.10207     3.33271
H     -1.86500    -0.29715     3.87972
O     -3.14562    -1.73514    -1.61205
H     -3.95249    -2.23124    -1.44522
O     -2.17307    -2.51655    -0.92578
H     -1.94641    -1.95393    -0.16243
O      0.68974    -1.22693     1.76347
H      0.05781    -0.68494     2.27528
O     -0.18178    -2.19280     1.16763
H      0.34667    -2.49388     0.40462
O      0.15425    -2.41248    -2.27320
H     -0.71747    -2.60485    -1.88535
O      0.98896    -2.78184    -1.17350
H      1.81345    -2.28245    -1.35869
O     -1.53159     3.84299    -0.23697
H     -0.70947     3.78953     0.26613
O     -1.27027     2.90992    -1.29236
H     -1.98585     2.26212    -1.15205
O     -1.76126     0.13772     0.17927
H     -0.91340     0.31264    -0.29768
O     -2.74584     0.72834    -0.68258
H     -2.92936    -0.04096    -1.25042
O      3.33380    -0.86483     1.35042
H      2.39806    -1.02791     1.56914
O      3.36436     0.56473     1.32607
H      3.41134     0.70022     0.36143
O     -0.03507     0.23586    -2.78082
H      0.12127    -0.72358    -2.69720
O      0.34723     0.64558    -1.46245
H      0.15493     1.60378    -1.48831
