 40
-1516.658304472619
O      3.11685    -2.02473    -0.56624
H      3.00173    -2.92923    -0.19864
O      2.63073    -2.20117    -1.89932
H      2.39382    -1.27422    -2.12685
O     -0.70657     0.77864     2.46308
H     -0.88179     1.73875     2.57700
O     -1.90619     0.30782     1.85817
H     -1.66464     0.30574     0.91834
O     -1.23654     3.78328     1.17559
H     -0.43498     3.28339     0.90272
O     -1.29701     3.43759     2.56672
H     -2.26190     3.35120     2.65643
O      1.54561    -0.22930     0.60530
H      2.19860    -0.83322     0.18002
O      0.80324    -1.14063     1.41758
H      0.30762    -0.49352     1.96328
O     -3.45303     2.53539     0.48725
H     -2.64922     3.09085     0.52348
O     -3.63990     2.31667     1.89142
H     -3.20884     1.44939     1.98616
O      0.76561     2.28935     0.36704
H      1.04309     1.35136     0.46631
O      0.84209     2.46740    -1.04562
H     -0.09820     2.42541    -1.30245
O     -2.00039     0.70601    -1.06717
H     -2.80416     1.18044    -0.79621
O     -1.50221     1.58477    -2.07703
H     -0.96654     0.94808    -2.58884
O     -0.28449    -2.05404    -0.81614
H      0.11543    -1.89200     0.06676
O      0.31213    -3.28978    -1.21160
H      1.15258    -2.96360    -1.59757
O      0.32943    -0.23540    -2.67828
H      0.10493    -0.88501    -1.97678
O      1.62161     0.21571    -2.27641
H      1.41514     1.07265    -1.84405
O      2.68771    -4.44808     0.42786
H      2.89290    -5.29238     0.01497
O      1.35211    -4.63256     0.89675
H      0.85234    -4.19554     0.17606
