 40
-1516.6505537512546
O      0.09858     1.92172    -1.34391
H     -0.87373     1.87673    -1.49681
O      0.20651     1.62247     0.04460
H      0.38670     0.66360     0.03381
O     -2.56889     1.75930    -1.67192
H     -3.04597     2.38391    -1.09195
O     -3.05660     0.52898    -1.12174
H     -2.25350     0.08890    -0.77548
O      3.90211    -2.86358    -2.60529
H      3.08276    -2.86911    -2.06781
O      4.48123    -1.60696    -2.24399
H      4.92419    -1.78806    -1.40843
O     -1.15684    -0.93468     0.04040
H     -0.63233    -1.59654    -0.45802
O     -1.97130    -1.70554     0.92777
H     -1.44060    -1.65754     1.73636
O     -4.17190     1.47830     1.06704
H     -4.00805     0.91105     0.28954
O     -3.76964     2.74711     0.51278
H     -2.97137     2.88933     1.05478
O      1.66469    -0.81113     0.85580
H      1.26640    -0.58539     1.72185
O      2.87929    -0.04799     0.86263
H      2.79717     0.40604     0.00436
O     -1.57449     2.32926     1.89331
H     -0.91007     2.03443     1.23668
O     -1.95946     1.10413     2.52220
H     -2.86306     0.98485     2.16393
O      1.73764    -2.69478    -1.00862
H      1.83908    -2.07619    -0.25838
O      0.68186    -2.05444    -1.73120
H      1.17264    -1.33346    -2.17180
O     -0.35027    -1.44736     3.53582
H     -0.09154    -1.48903     4.46197
O      0.27429    -0.22931     3.12040
H     -0.51684     0.34213     2.98124
O      2.53429     0.91982    -1.63391
H      1.68971     1.41024    -1.70418
O      2.32494    -0.13649    -2.57346
H      3.19397    -0.59911    -2.53710
