 32
-1213.3156618215253
O      1.94752    -0.17723     1.75588
H      2.74468     0.29494     2.03041
O      1.54451    -0.88542     2.93117
H      0.69250    -0.43330     3.09696
O      0.54143    -2.49307     0.95516
H      0.96748    -2.17535     1.77449
O     -0.76640    -2.87085     1.39432
H     -1.28023    -2.63827     0.59708
O      0.81313     2.18147    -3.36964
H      0.52677     2.87241    -3.97386
O     -0.38885     1.46724    -3.12493
H     -0.66505     1.80195    -2.24195
O     -1.25903     1.79837    -0.64815
H     -1.86601     1.03444    -0.56056
O     -0.30999     1.46284     0.36811
H      0.54266     1.76460    -0.03228
O      1.88423     2.24906    -0.91163
H      1.69287     2.27779    -1.86668
O      2.79212     1.15664    -0.82811
H      2.17491     0.39999    -0.85937
O     -2.63820    -0.41795    -0.14631
H     -2.53236    -0.51483     0.82184
O     -2.12456    -1.66862    -0.60004
H     -1.41910    -1.37995    -1.21880
O      0.97257    -0.77021    -1.03133
H      0.72751    -1.39125    -0.31139
O     -0.00606    -1.03867    -2.03602
H     -0.01758    -0.19965    -2.52646
O     -1.93159    -0.67687     2.43538
H     -1.44876    -1.52235     2.37713
O     -0.86637     0.23707     2.67400
H     -0.73366     0.65620     1.79873
