 36
-1364.9754350286655
O     -2.26160     0.89861     1.12043
H     -1.40737     0.93366     1.60417
O     -2.15639     1.91031     0.11275
H     -1.91890     2.70201     0.61898
O      0.85546    -2.92101     1.11375
H      0.32765    -3.50030     0.51694
O     -0.14221    -2.24982     1.88964
H     -0.82283    -2.04686     1.21917
O      0.08763     0.60984     2.31543
H      0.15579    -0.31809     2.59746
O     -0.31467     1.29303     3.50526
H     -0.05066     2.18824     3.25494
O     -1.74205    -1.48086    -1.37657
H     -0.83577    -1.14164    -1.44284
O     -1.94798    -1.55045     0.03232
H     -2.28946    -0.66015     0.27007
O      2.74868     0.73079    -2.82770
H      3.39395     0.66496    -3.53694
O      1.55809     1.05207    -3.55080
H      1.02232     1.41225    -2.82109
O     -0.35007     3.81185     1.17958
H      0.23179     3.22892     0.64048
O      0.36018     3.81703     2.42145
H      0.18377     4.71372     2.71768
O      0.83378     1.98968    -0.30413
H      1.11795     1.09754    -0.01511
O     -0.00252     1.62882    -1.40983
H     -0.88341     1.64515    -0.98544
O      1.25357    -1.03298    -1.50359
H      1.92002    -0.46053    -1.94037
O      1.36963    -0.59993    -0.13163
H      1.31422    -1.45074     0.36355
O      0.26962    -3.98711    -1.95807
H      0.73554    -3.15175    -1.81305
O     -0.61255    -4.02599    -0.83450
H     -1.39357    -3.54418    -1.15347
