 36
-1364.9802456222833
O      2.05983     1.38361    -3.08013
H      1.15977     1.18001    -3.37971
O      1.91861     2.67611    -2.48754
H      2.18759     2.50114    -1.57550
O      1.15803    -1.79848     1.37722
H      0.28849    -2.19311     1.58217
O      1.29664    -0.81292     2.39967
H      1.87322    -0.14464     1.95572
O     -2.34252    -1.94174     1.56555
H     -2.03608    -1.24381     2.18170
O     -1.27622    -2.87832     1.67880
H     -1.70649    -3.61792     2.11825
O      1.44497    -1.13157    -1.18686
H      1.40452    -1.31814    -0.22558
O      2.70335    -0.46354    -1.29521
H      2.50152     0.18292    -2.00548
O     -2.60312    -1.07835    -1.02872
H     -2.55390    -1.46665    -0.13634
O     -3.42832     0.06957    -0.80654
H     -2.78039     0.70460    -0.44816
O     -0.41903     0.93948     0.04790
H     -0.52824     0.73711    -0.91619
O     -1.59100     1.71329     0.30168
H     -1.65252     1.54360     1.25502
O      2.77289     0.90238     0.98280
H      2.97301     0.40516     0.16096
O      1.98832     1.98186     0.47564
H      1.10644     1.57052     0.37168
O     -1.32278     1.19168     2.89824
H     -1.60733     1.54577     3.74486
O     -1.16024    -0.18622     3.20103
H     -0.20809    -0.32164     2.99280
O     -0.11290    -0.51313    -3.28202
H      0.44737    -0.90596    -2.58942
O     -0.94153     0.31599    -2.46578
H     -1.70053    -0.27489    -2.24154
