 32
-1213.3055068139577
O      1.34777    -1.39395     1.15286
H      1.00933    -0.87640     0.39051
O      0.57874    -2.59044     1.00641
H      0.25753    -2.73613     1.90191
O      1.40755    -0.62697    -3.85626
H      1.46085    -0.34593    -4.77275
O      0.02514    -0.98836    -3.74486
H      0.09534    -1.65095    -3.04393
O     -1.65745    -0.43536     1.19775
H     -1.06470    -0.37403     1.96523
O     -2.37679    -1.63959     1.43640
H     -2.19899    -2.11178     0.61172
O     -1.66386     2.22261     0.84088
H     -1.85553     1.27058     0.89322
O     -0.78356     2.25728    -0.28490
H     -0.01293     2.74316     0.07050
O      1.56540     3.05221     0.77963
H      1.32909     3.23209     1.70193
O      1.92612     1.66580     0.91448
H      1.90638     1.36723    -0.01644
O     -0.42020    -2.81788    -1.46167
H     -0.07311    -2.74994    -0.54606
O     -1.79823    -3.09254    -1.20362
H     -2.21741    -2.48923    -1.82418
O     -0.01002     2.34415     2.96970
H     -0.74365     2.44314     2.33646
O      0.24540     0.93386     2.83467
H      0.95158     0.96086     2.16304
O      1.48300     0.74708    -1.53536
H      1.47202     0.29790    -2.40723
O      0.43236     0.00187    -0.90359
H     -0.21756     0.72124    -0.74302
