 36
-1364.9709130640497
O      3.28377     1.77284     0.20920
H      2.69469     1.80538    -0.55704
O      2.35515     1.55426     1.26674
H      2.58235     0.66647     1.58678
O      0.31357    -3.52650     1.16937
H     -0.11761    -4.38274     1.11439
O     -0.74510    -2.64614     0.79645
H     -0.36834    -2.20298    -0.00301
O      0.00029     2.42193     0.41938
H      0.84978     2.12247     0.82153
O     -0.90884     1.47225     0.97100
H     -1.10860     0.88916     0.20762
O     -3.03199    -0.99197    -0.11789
H     -2.93272    -0.71297     0.81064
O     -1.92556    -0.28799    -0.69041
H     -2.18355    -0.15880    -1.62147
O     -0.67858     0.21674    -3.27168
H     -0.33235     1.08549    -2.97749
O     -2.08169     0.46870    -3.26828
H     -2.33406     0.14058    -4.13562
O      1.92923    -1.41066     1.44739
H      1.51159    -2.29261     1.51047
O      1.67553    -0.83280     2.72246
H      0.75046    -0.54458     2.63512
O      0.22343     2.54656    -2.21340
H      0.07262     2.53789    -1.23500
O      1.64644     2.53971    -2.28978
H      1.82848     3.45863    -2.51081
O     -1.26963    -1.01688     2.85467
H     -1.22054    -1.65879     2.12014
O     -2.38686    -0.22272     2.45704
H     -1.93825     0.58725     2.15722
O      1.20532    -0.28657    -0.85927
H      1.64183    -0.61402    -0.05140
O      0.48724    -1.47722    -1.22739
H      0.12728    -1.19573    -2.08235
