 16
-606.6334857673636
O     -2.59015     1.04088     0.87119
H     -1.65755     0.98652     0.61518
O     -3.24499     0.50346    -0.28335
H     -3.70304     1.27666    -0.62700
O      2.93885     0.38439     1.48856
H      2.71762     1.29743     1.27489
O      4.08527     0.16519     0.66058
H      4.76678     0.02150     1.32717
O      0.27567     0.66545    -0.01005
H     -0.04512     0.34552    -0.87661
O      0.42479    -0.60753     0.65193
H      1.37229    -0.58752     0.84039
O     -1.26789    -0.53955    -1.84895
H     -2.08439    -0.34123    -1.35499
O     -1.07859    -1.92768    -1.56528
H     -0.56096    -1.87599    -0.74890
