 36
-1364.9751865666483
O     -0.64340     3.26163     0.68856
H     -0.66084     2.96260    -0.24185
O      0.63825     3.88965     0.79887
H      1.22874     3.13715     0.64626
O     -1.98031    -1.41058    -1.72171
H     -1.84299    -0.52302    -1.31679
O     -3.14754    -1.88314    -1.05896
H     -2.97836    -1.61042    -0.13420
O      0.74494    -2.22231    -0.68817
H      0.73497    -2.19361    -1.65810
O     -0.40840    -2.99496    -0.33642
H     -1.09282    -2.63227    -0.94267
O     -0.58844     1.88544    -1.63935
H      0.15301     1.41075    -2.05504
O     -1.11296     0.87797    -0.77565
H     -0.30281     0.63362    -0.26385
O      2.15763     1.55277     0.41833
H      2.90342     0.94039     0.52746
O      1.12960     0.55403     0.48519
H      0.86338     0.61359     1.43510
O     -0.08402     0.71702     2.81693
H     -0.36686    -0.19322     2.98971
O     -1.32048     1.24979     2.30473
H     -1.00909     2.01730     1.77408
O      1.09677     0.31278    -3.03916
H      1.35507     0.59042    -3.92168
O      0.48145    -0.94127    -3.28496
H     -0.44540    -0.75399    -3.07350
O      3.50208    -0.73203     0.61552
H      4.39643    -1.01568     0.82712
O      2.71456    -1.58007     1.45427
H      2.13596    -1.96588     0.78017
O     -1.35565    -1.63069     1.92675
H     -1.01723    -2.16192     1.18318
O     -2.47032    -0.95165     1.33038
H     -2.25103    -0.02777     1.56331
