 36
-1364.975318606883
O      0.89958     2.08305    -0.44060
H      1.58084     2.03278     0.26368
O     -0.05685     1.18724     0.13675
H     -0.42766     0.71507    -0.63270
O     -1.67961    -0.72393     1.97947
H     -2.21750     0.03742     1.71787
O     -1.60479    -1.46451     0.75945
H     -0.67344    -1.75386     0.75882
O      2.22343     1.55552     1.79103
H      1.46615     1.23322     2.32338
O      3.10273     0.43810     1.94167
H      2.81757    -0.14920     1.21814
O     -2.33670     2.06249     1.14222
H     -1.43338     1.92761     0.78615
O     -3.13180     1.91322    -0.03648
H     -3.35321     2.82299    -0.26232
O     -2.02716     0.22075    -1.78105
H     -2.53785     0.77039    -1.15050
O     -1.83698     1.14622    -2.85777
H     -0.91967     0.94272    -3.10846
O      2.15609    -1.40710     0.28671
H      1.77268    -1.14894    -0.56953
O      1.07309    -2.08940     0.91694
H      1.23663    -1.87417     1.85938
O      1.58450     0.16855    -2.16698
H      1.48920     1.04432    -1.74536
O      0.73632     0.29336    -3.31271
H      0.45211    -0.62726    -3.40868
O      0.53344     0.09279     3.16175
H     -0.25076    -0.29481     2.71669
O      1.33990    -1.07113     3.40440
H      2.21213    -0.65502     3.31351
O     -0.25219    -2.59050    -1.78350
H     -0.54882    -3.50603    -1.83813
O     -0.92899    -1.99071    -2.89486
H     -1.52585    -1.37104    -2.43712
