 28
-1061.6409657158865
O      1.81115    -0.51750    -1.33620
H      2.04757     0.03318    -0.57193
O      1.05997     0.43372    -2.10202
H      0.31873    -0.10150    -2.42134
O      0.29693    -0.92178     1.34395
H     -0.14980    -1.43350     0.63448
O      1.50170    -1.66536     1.54086
H      2.12284    -0.92885     1.55779
O     -0.20697     1.95615     0.69184
H     -1.00255     1.51922     1.06713
O     -0.54947     2.03044    -0.69401
H      0.78419    -2.28609    -1.35747
O     -2.36549     0.14387    -1.41285
H     -1.83104     0.88161    -1.04657
O     -1.82972     0.06109    -2.74031
H     -2.53271     0.45679    -3.26532
O     -2.21011     0.54979     1.66398
H     -3.09646     0.25401     1.89627
O     -1.48239     0.31045     2.87174
H     -0.76516    -0.24918     2.50917
O     -0.90817    -2.32842    -0.56301
H     -1.59835    -1.81299    -1.00555
O     -0.04489    -2.69011    -1.64903
H      0.20537     1.57829    -1.12352
O      2.30116     1.10367     0.78821
H      1.41200     1.49512     0.95397
O      2.97353     1.30755     2.02365
H      3.73942     1.80668     1.72883
