 32
-1213.3083212958477
O      3.08886     0.41572     0.66974
H      2.96214     0.05292    -0.22201
O      2.58725     1.74492     0.52899
H      1.73149     1.69034     0.98080
O     -0.87113    -1.22214    -0.13473
H     -0.26024    -1.97855    -0.16353
O     -1.57939    -1.35636    -1.37900
H     -1.43786    -0.47247    -1.77031
O     -1.42695     1.17904    -2.25797
H     -0.51193     1.52280    -2.22625
O     -2.07137     1.98693    -1.26375
H     -2.83921     1.41210    -1.02743
O     -0.35219     1.61259     0.72264
H     -1.01480     1.82324     0.02250
O     -1.15975     1.08664     1.78178
H     -0.73501     0.22332     1.90609
O      1.18922     1.62075    -1.81160
H      1.76670     2.00629    -1.12680
O      1.22340     0.24392    -1.43279
H      0.61102     0.20013    -0.67031
O      2.71173    -2.49851    -0.45396
H      2.47224    -2.52597     0.48099
O      1.42743    -2.66133    -1.06227
H      1.41060    -1.89485    -1.65414
O      0.65848    -1.26093     2.53734
H      0.51698    -1.54683     3.44747
O      1.98503    -1.71594     2.28473
H      2.43159    -0.87636     2.09030
O     -3.68504     0.22533     1.07571
H     -2.80703     0.61261     1.22496
O     -3.78689     0.19595    -0.35134
H     -3.37972    -0.65453    -0.57942
