 32
-1213.3090171070937
O      2.42096    -1.11468    -2.20760
H      1.87219    -1.85014    -1.89961
O      1.42970    -0.24973    -2.76060
H      1.80071     0.62237    -2.54065
O      0.84431    -0.21330     1.89873
H      0.71833     0.75694     1.95561
O      1.26086    -0.34491     0.53936
H      0.47233    -0.00703     0.04997
O     -0.77640     0.53511    -0.85887
H     -1.67398     0.65996    -0.46738
O     -0.91108    -0.64745    -1.64259
H     -0.09175    -0.55398    -2.18123
O      2.57442     2.04214    -1.91531
H      3.49019     2.25755    -2.12350
O      2.56592     2.04236    -0.49336
H      2.54545     1.09517    -0.28880
O      0.43093     2.36320     1.51972
H      0.81756     2.55083     0.65236
O     -0.57139     3.37087     1.64273
H     -1.36379     2.82609     1.73580
O      0.77509    -3.00528    -0.62277
H      1.03479    -2.37568     0.06800
O     -0.64330    -3.03988    -0.46008
H     -0.90793    -2.20481    -0.88943
O     -1.62506    -1.18346     1.62402
H     -0.68432    -1.02537     1.86750
O     -1.89107    -2.50108     2.09945
H     -1.63064    -3.00777     1.31647
O     -3.10890     1.13798     0.28544
H     -4.02061     0.82953     0.27740
O     -2.79936     1.20296     1.68236
H     -2.41134     0.30915     1.81573
