 20
-758.3044544282528
O     -1.06691     0.75458     1.32440
H     -1.66239     0.08633     0.93716
O     -0.51095     0.05576     2.43761
H      0.01866    -0.61436     1.97555
O      0.82039    -1.64444     0.74462
H      1.02333    -0.99664     0.03811
O      0.00563    -2.57026     0.02359
H      0.19065    -3.38717     0.49557
O      1.25784     1.21811     0.15910
H      0.37548     1.17711     0.59746
O      1.00584     0.36945    -0.97462
H      1.13521     1.01735    -1.69155
O      1.84553     2.33680    -2.61376
H      2.68246     2.18443    -3.06416
O      2.19180     3.36918    -1.67872
H      2.08923     2.88687    -0.84446
O     -2.38299    -1.30125     0.07035
H     -1.60467    -1.87359    -0.04909
O     -3.23177    -2.16143     0.82797
H     -4.04609    -2.08990     0.32288
