 24
-909.9735381807958
O      0.58350    -2.38601     0.56233
H     -0.05312    -1.87918     0.01445
O      0.18938    -2.05033     1.89117
H     -0.25879    -2.85358     2.17696
O      0.28310    -1.46432    -2.39986
H      1.12990    -1.24704    -1.98659
O     -0.62976    -1.03006    -1.39562
H     -1.03009    -0.23377    -1.78332
O      2.94658    -0.70866    -0.94323
H      3.50020     0.04743    -1.15396
O      2.47297    -0.32598     0.35485
H      2.23117    -1.19247     0.71338
O     -1.56770     1.77578    -1.65793
H     -0.77238     1.83094    -1.08290
O     -2.60438     1.80630    -0.67873
H     -2.90030     2.72119    -0.72066
O     -2.04279    -0.09214     1.14247
H     -2.11389     0.69003     0.56860
O     -1.03329     0.29916     2.07794
H     -0.49575    -0.51120     2.06602
O      0.62449     1.57599    -0.16441
H      1.23492     0.85215     0.08128
O      0.45514     2.26958     1.07508
H     -0.13614     1.64749     1.55331
