 40
-1516.6429853799168
O      1.95213     0.86200     2.33330
H      2.49900     0.10445     2.03126
O      0.87553     0.14337     2.95672
H      0.18221     0.81826     2.97124
O      2.13940    -0.77250    -1.92882
H      1.84276    -1.68404    -1.76965
O      0.91265    -0.08181    -1.70467
H      1.14433     0.65662    -1.09164
O     -1.28348     3.03621    -2.07238
H     -0.53139     3.24656    -1.49089
O     -1.45447     1.66894    -1.69296
H     -1.32295     1.18164    -2.52275
O     -2.41464     1.62867     2.16807
H     -3.01003     1.78632     1.41846
O     -1.21929     1.37418     1.44163
H     -1.30153     0.42411     1.19242
O     -3.62440     1.38614    -0.23927
H     -2.82357     1.52096    -0.79895
O     -3.71748    -0.03985    -0.26729
H     -4.43306    -0.20433     0.35662
O      0.39910     2.95068     0.08152
H     -0.24809     2.41244     0.58874
O      1.47112     2.02191    -0.09538
H      1.75578     1.82724     0.81968
O      3.73898    -0.48561     0.25920
H      3.18496    -0.54885    -0.54271
O      3.01995    -1.26704     1.20899
H      3.01031    -2.15167     0.79471
O     -1.17147    -1.24387     0.92862
H     -1.28729    -1.53227    -0.00852
O      0.10906    -1.78539     1.25744
H      0.46203    -1.12294     1.89816
O      1.27648    -3.07490    -0.69914
H      0.83553    -2.64442     0.07135
O      2.46241    -3.54936    -0.08051
H      2.27774    -4.48322     0.05684
O     -2.26865    -0.89798    -2.37186
H     -2.83148    -0.68051    -1.60951
O     -1.22319    -1.61898    -1.72605
H     -0.45848    -1.02952    -1.89693
