 40
-1516.6411713977195
O      1.65265    -0.79779     2.41017
H      2.26140    -0.37276     1.77461
O      1.17139     0.29287     3.19441
H      0.64927     0.79964     2.54107
O      0.18245    -0.32058    -1.10603
H     -0.20414     0.16849    -0.34641
O     -0.30141     0.37664    -2.24958
H     -1.05722    -0.18396    -2.48442
O     -1.53258     2.59020    -1.42800
H     -0.89293     2.00616    -1.87952
O     -2.76792     1.91516    -1.65200
H     -2.82408     1.35347    -0.86143
O     -2.93717     0.79797     1.78591
H     -2.34242     1.55862     1.88973
O     -2.24029     0.10221     0.75509
H     -1.65484    -0.50488     1.25905
O      0.06617     1.59621     1.13923
H      0.79733     2.04302     0.65240
O     -0.96340     2.58620     1.18093
H     -1.19267     2.67108     0.22661
O      1.49352     3.04313    -1.57659
H      1.82477     3.94422    -1.57223
O      2.07828     2.54223    -0.37742
H      2.57192     1.75486    -0.69800
O      2.85306     0.02716    -1.09150
H      1.93292    -0.29981    -1.16232
O      3.24657    -0.37259     0.22313
H      3.17992    -1.34711     0.15126
O     -0.29686    -2.68320     0.61963
H     -0.99780    -2.53149    -0.03392
O     -0.65658    -1.78279     1.67940
H      0.23118    -1.49315     2.02501
O      2.34079    -2.89594     0.29548
H      1.36640    -2.84707     0.39911
O      2.44692    -3.52132    -0.97620
H      2.90346    -4.33289    -0.73970
O     -2.89686    -2.13074    -0.96710
H     -3.09534    -1.51197    -0.24633
O     -2.76231    -1.23764    -2.06724
H     -3.61058    -1.31609    -2.51945
