 36
-1364.9811131630086
O      1.28867     1.88577    -0.17910
H      1.36939     1.27882    -0.94294
O      2.21727     1.34930     0.77024
H      1.61633     1.21404     1.52992
O     -0.89287    -2.09991    -0.46369
H     -0.31778    -1.77303    -1.18645
O     -2.17235    -2.20467    -1.08392
H     -2.61358    -1.44911    -0.67317
O      0.29530     0.84883     2.56268
H     -0.31137     1.60446     2.44961
O     -0.36566    -0.18924     1.83462
H      0.38233    -0.79327     1.62496
O      1.70162    -1.72674     1.12958
H      1.64906    -2.68426     0.90865
O      2.64359    -1.24321     0.16080
H      2.67581    -0.29657     0.40813
O     -0.70593     3.48820     0.71139
H      0.04000     2.91301     0.43861
O     -0.79183     3.25463     2.11170
H     -0.40776     4.05400     2.48671
O     -1.87888     0.49568    -0.23788
H     -1.31830     0.23365     0.53131
O     -2.78791     1.42368     0.32473
H     -2.29998     2.24685     0.18752
O      1.04927    -1.05850    -2.02398
H      1.76397    -1.23358    -1.38038
O      1.35075     0.29359    -2.38468
H      0.50089     0.58223    -2.76889
O     -1.12383     1.34146    -2.61891
H     -1.49489     0.95758    -1.79416
O     -0.92560     2.69067    -2.19381
H     -1.54142     3.15795    -2.76726
O      1.17334    -4.21138     0.40863
H      1.38904    -5.13184     0.58348
O     -0.07420    -4.07094     1.09909
H     -0.51613    -3.43368     0.49913
