 20
-758.304897514563
O     -0.59808    -1.40305     0.32595
H     -1.53634    -1.14324     0.38881
O     -0.03374    -0.61887     1.39382
H      0.88365    -0.96887     1.36201
O      2.27189    -1.58029     0.52667
H      2.43015    -0.91246    -0.16104
O      1.90782    -2.73771    -0.23337
H      0.94526    -2.64074    -0.24889
O     -0.63742     1.48645    -0.16014
H     -0.27470     0.84504     0.49718
O     -0.57983     2.73842     0.51420
H     -1.50232     2.86453     0.75248
O      2.55840     0.85568    -1.01952
H      3.31636     1.04238    -1.57954
O      1.52499     0.70871    -2.00363
H      0.84243     1.27280    -1.61115
O     -3.20597     0.70952    -0.31364
H     -2.26145     0.93344    -0.40490
O     -3.10383    -0.48828     0.46831
H     -3.49916    -0.21818     1.30315
