 36
-1364.9811377482904
O     -1.23301     1.96904    -0.08128
H     -1.87530     1.64423    -0.74680
O     -0.43240     2.85432    -0.86609
H     -0.08803     2.24812    -1.55623
O     -2.66473    -1.61892     0.58603
H     -2.19848    -2.09569     1.28616
O     -1.69371    -1.64162    -0.45543
H     -0.97457    -1.12258    -0.03221
O      2.45964     0.67089     1.01600
H      2.37854     1.62419     0.80665
O      2.25640     0.06480    -0.26225
H      2.02606    -0.85420     0.00758
O      0.65830     0.85945    -2.29769
H      1.33034     0.65022    -1.61547
O      0.19796    -0.45766    -2.61535
H     -0.71082    -0.28363    -2.90294
O      1.85832     3.25508     0.51212
H      0.96685     3.24917     0.10033
O      2.65568     3.77272    -0.55031
H      2.97418     4.58665    -0.15161
O     -0.23043    -0.15484     1.08772
H     -0.54260     0.72576     0.78492
O      0.29025     0.10382     2.38919
H      1.22199     0.23753     2.12680
O     -2.66317    -0.17557    -2.50357
H     -2.50991    -0.69783    -1.68601
O     -2.89036     1.13402    -1.99039
H     -3.84280     1.23473    -2.07710
O     -0.48910    -2.51155     2.55672
H     -0.24775    -1.58698     2.76936
O     -0.86588    -3.05425     3.82108
H     -0.16983    -3.70592     3.94239
O      1.08763    -3.01573    -0.95620
H      0.80356    -2.25715    -1.48583
O      1.41569    -2.39268     0.27777
H      0.68448    -2.66214     0.85704
