 36
-1364.9789820343522
O      1.32229     1.60796    -2.27309
H      0.82617     1.03038    -2.87592
O      0.51268     1.53440    -1.11052
H      0.57975     0.57634    -0.88452
O      0.45156    -1.06749    -0.86221
H      0.67082    -1.69953    -0.13830
O     -0.79679    -1.58418    -1.34957
H     -1.38348    -1.46204    -0.56019
O     -2.23155    -1.35322     0.86742
H     -2.01399    -0.62212     1.48234
O     -3.58253    -1.06985     0.51280
H     -3.43579    -0.33661    -0.11325
O     -2.69735     0.86058    -1.13065
H     -2.26814     0.84568    -2.01056
O     -2.03978     1.92357    -0.44166
H     -1.11960     1.87739    -0.77994
O     -0.46013    -0.11351    -3.53105
H     -0.64221    -0.73103    -2.78920
O     -1.66466     0.64197    -3.56703
H     -2.09336     0.31183    -4.36210
O      2.80258     1.76094     0.61892
H      1.98952     2.11969     0.23718
O      2.56840     1.83840     2.03088
H      2.88495     0.95970     2.28885
O     -1.36813     0.94023     2.01126
H     -1.66032     1.45033     1.22635
O      0.02121     0.76228     1.72414
H      0.46927     1.43485     2.26565
O      3.35730    -1.05863     1.90581
H      2.73284    -1.71482     2.24597
O      3.19602    -1.23269     0.48883
H      3.15064    -0.30944     0.19797
O      0.62233    -1.76995     2.48336
H      0.47590    -0.86242     2.15691
O      0.29958    -2.56425     1.33561
H     -0.66108    -2.66700     1.41002
