 36
-1364.9750119339747
O      0.20418     3.28521    -0.38745
H      0.06009     2.46915    -0.90555
O      1.08879     2.82915     0.62829
H      0.49357     2.62680     1.36569
O     -1.96958    -1.98083     0.23841
H     -1.58028    -2.86213     0.33525
O     -2.13422    -1.92409    -1.18932
H     -2.10705    -0.95376    -1.32375
O     -0.36989     0.66261     3.35628
H     -0.16994     0.27231     2.47670
O      0.23354     1.95320     3.25294
H      1.04952     1.84148     3.74895
O      0.03505    -0.43619     0.95201
H     -0.72364    -0.99418     0.63299
O      1.16676    -1.30109     0.77436
H      1.74208    -0.69200     0.27784
O     -2.10492     2.03046     1.03017
H     -2.44930     2.92882     0.95626
O     -2.92078     1.43394     2.03478
H     -2.27622     1.35332     2.75254
O     -1.77130     0.70432    -1.27951
H     -1.79807     1.12624    -0.39833
O     -0.42431     0.97009    -1.68341
H     -0.11991     0.08700    -1.99487
O      2.54557     0.79133    -0.22355
H      2.04258     1.58650     0.07653
O      2.71703     1.06417    -1.60665
H      3.65529     1.26563    -1.64336
O      1.93287    -1.17679    -2.96349
H      2.14149    -0.34317    -2.51560
O      0.56359    -1.34417    -2.57734
H      0.57767    -2.18705    -2.09595
O      0.49342    -3.93812    -1.02032
H      1.00143    -4.75465    -1.06014
O      0.25966    -3.80702     0.38315
H      0.68747    -2.94332     0.55298
