 36
-1364.9778697065396
O      1.10352    -0.15224     3.79710
H      1.83697    -0.39457     4.37002
O      0.89382    -1.35175     3.05298
H      1.24060    -1.08398     2.16754
O      0.76316     2.99335    -0.26087
H      1.05255     2.62589     0.59445
O     -0.65463     2.83427    -0.11407
H     -0.81169     1.96952    -0.54984
O     -0.66680     2.09082     2.47831
H     -0.94944     2.53053     1.65550
O      0.72490     1.92987     2.15651
H      0.95500     1.18323     2.74305
O     -0.20547    -0.12413    -4.01897
H      0.24877     0.62253    -3.59030
O      0.66625    -1.19818    -3.63908
H      1.01116    -1.47869    -4.49314
O     -2.13787    -2.69696    -1.06796
H     -2.54247    -1.82842    -1.20439
O     -1.05926    -2.32197    -0.21631
H     -1.46605    -2.36041     0.67420
O     -1.84047    -0.35353     1.60620
H     -1.52637     0.30122     2.25049
O     -1.72843    -1.61905     2.26998
H     -0.84348    -1.56195     2.67398
O      2.12401     0.52732    -1.69537
H      1.87961    -0.26443    -2.19943
O      1.39320     1.53104    -2.41677
H      1.18513     2.16707    -1.69756
O     -0.92810     0.35369    -1.02626
H     -0.97568    -0.22053    -0.23604
O     -2.07762    -0.10015    -1.75341
H     -1.64641    -0.36095    -2.57982
O      1.57375    -1.87654     0.11439
H      0.61817    -2.00415    -0.05326
O      1.56243    -0.55985     0.66499
H      1.75411    -0.01104    -0.13105
