 28
-1061.6459052260489
O     -1.41007     0.23767    -1.08502
H     -0.49083     0.06953    -1.38376
O     -1.17094     0.68110     0.25595
H     -1.30069    -0.14439     0.79317
O      1.36237    -1.31715     1.82931
H      1.44227    -1.35874     0.85571
O      2.35525    -0.35418     2.17847
H      1.96720     0.46768     1.82428
O     -0.95701    -0.82047     2.91973
H     -0.00659    -0.88707     2.66500
O     -1.56663    -1.38861     1.75938
H     -2.01312    -1.42819    -1.04288
O     -0.85292     2.89411    -2.24681
H     -1.39632     2.30099    -1.70613
O     -0.04453     3.49841    -1.24231
H     -0.29979     4.42487    -1.28147
O      1.12873    -0.34289    -1.64232
H      1.58795     0.36286    -1.13292
O      1.32130    -1.49918    -0.82739
H      0.51755    -2.01237    -1.03970
O     -0.89281    -2.90539    -1.31201
H     -1.08554    -3.37394    -2.13059
O     -2.16616    -2.38711    -0.94140
H     -1.30261    -2.31681     1.78022
O      1.18048     1.73340     0.90924
H      0.30213     1.39625     0.63430
O      1.85611     1.86081    -0.34669
H      1.31314     2.55487    -0.76701
