 32
-1213.30485466088
O      1.73432    -2.37878     1.30355
H      1.93055    -2.07771     0.38864
O      2.25138    -1.30310     2.08279
H      3.08608    -1.67118     2.39468
O      2.01296    -1.62367    -1.23282
H      1.19936    -1.45998    -1.75292
O      2.93853    -0.65691    -1.72223
H      2.65999     0.14980    -1.26450
O     -3.04594    -0.57577    -1.10298
H     -2.89424     0.34790    -0.85839
O     -3.31358    -1.16210     0.17269
H     -2.45371    -1.55934     0.40317
O      0.80037     3.30009    -1.43686
H      1.37136     3.99768    -1.77142
O      1.44610     2.13644    -1.96214
H      0.73806     1.46785    -1.84957
O      0.55637     2.12369     0.97506
H      0.72728     2.67634     0.18796
O      1.48063     1.06452     0.67970
H      1.39424     0.47702     1.44703
O     -0.53509    -1.05482    -1.92195
H     -1.50345    -1.09360    -1.76039
O     -0.25305     0.22492    -1.34185
H     -0.04587    -0.01451    -0.41467
O     -0.39495    -0.67201     1.56609
H     -1.17809    -0.20060     1.90450
O     -0.93389    -1.96967     1.24351
H     -0.12178    -2.48914     1.38096
O     -2.09324     1.54402     0.66649
H     -1.16595     1.77791     0.86901
O     -2.52499     0.90341     1.88166
H     -3.20744     0.31968     1.51619
