 16
-606.6425344372547
O     -1.93953     0.40019     0.48955
H     -2.52238     0.25516     1.24145
O     -0.98932     1.33395     1.01071
H     -0.30022     0.70144     1.32653
O      1.95773     0.10095     1.02310
H      1.67838     0.45640     0.15603
O      0.77049    -0.54216     1.48694
H      0.67334    -1.29519     0.87740
O      1.20227     0.95944    -1.40453
H      0.59339     0.26798    -1.70232
O      0.34916     2.10389    -1.35544
H     -0.03698     2.03349    -0.46912
O     -0.55440    -1.26031    -1.06100
H     -1.12039    -0.72904    -0.46500
O     -0.25332    -2.36567    -0.20850
H      0.05211    -3.01182    -0.85243
