 32
-1213.3095442390531
O     -0.18468    -3.10337     0.10342
H     -1.10855    -2.96208     0.34491
O      0.38497    -2.11704     0.98412
H      1.33624    -2.19678     0.78417
O      0.62472    -1.64119    -2.57894
H      0.27157    -2.16659    -1.84458
O      1.21703    -0.53318    -1.89963
H      0.53678     0.15722    -1.96077
O     -2.28672    -1.35780     0.67142
H     -2.33481    -0.64523     1.33666
O     -1.52711    -0.68798    -0.33399
H     -0.63210    -0.65610     0.05204
O     -2.19026     0.98487     2.07979
H     -2.35355     1.59578     1.31760
O     -0.83739     1.27556     2.41780
H     -0.91106     2.04696     2.98759
O      0.85158     2.65998    -1.01200
H      1.05878     1.91764    -0.39288
O     -0.21492     2.06373    -1.77004
H     -0.13300     2.52594    -2.60981
O      3.00946    -2.19339     0.44511
H      3.60490    -2.81163     0.01092
O      3.28520    -0.95987    -0.21640
H      2.52122    -0.88076    -0.82838
O      1.10181     0.70618     0.72652
H      0.41316     0.81850     1.41543
O      2.27666     1.05740     1.45704
H      2.86659     0.36551     1.12210
O     -3.20433     1.36874    -0.73638
H     -2.63936     0.57035    -0.68126
O     -2.36391     2.36579    -0.14672
H     -1.58024     2.34924    -0.73162
