 28
-1061.6437694302313
O      1.00490     0.52874     1.67005
H      0.88233    -0.38166     2.00943
O     -0.34463     0.99437     1.62168
H     -0.65429     0.64239     0.76749
O      0.38516    -2.48866     0.68247
H      1.21126    -2.09760     0.32536
O      0.40705    -2.02983     2.03900
H     -0.55471    -1.98985     2.23478
O     -2.12037    -1.48263     2.49368
H     -3.04683    -1.28792     2.31986
O     -1.74229    -0.44943     3.40153
H      1.48032     2.57450    -0.20124
O     -1.70122     1.49245    -2.73544
H     -1.75679     1.94983    -3.57987
O     -1.38290     2.54685    -1.82191
H     -0.45777     2.32638    -1.59590
O     -0.74486    -0.78059    -1.76760
H     -1.13335     0.04505    -2.13314
O     -1.36706    -0.81726    -0.47733
H     -0.86808    -1.54816    -0.05804
O      2.07847     1.98073    -1.90265
H      2.19584     1.01556    -1.97830
O      1.08314     2.01139    -0.87475
H     -1.26386     0.15626     2.79940
O      2.33774    -1.02690    -0.40653
H      2.12308    -0.20569     0.06596
O      1.91921    -0.73370    -1.73954
H      0.94340    -0.83856    -1.70992
