 16
-606.6411165757621
O     -1.52174     0.39704     1.34561
H     -1.56754    -0.28273     0.65716
O     -1.83709     1.57337     0.58817
H     -0.95595     1.83902     0.28198
O      1.63863    -0.52043     0.64215
H      1.23358    -1.32803     0.27440
O      1.19370    -0.53615     1.99758
H      0.34312    -0.07694     1.93028
O      0.67900     1.63965    -0.54026
H      1.14858     0.91687    -0.06732
O      0.40634     0.95247    -1.76902
H      0.03997     1.66769    -2.29859
O     -0.79822    -1.27699    -0.90650
H     -0.32752    -0.52611    -1.31783
O      0.24801    -2.25335    -0.88773
H     -0.26019    -3.05748    -0.74407
