 36
-1364.9752094982116
O      1.42125     1.73784    -0.87240
H      1.95967     1.02359    -1.29760
O      2.02058     1.77853     0.42950
H      1.36999     2.30331     0.93599
O     -0.55614    -0.81896    -1.26961
H     -0.53478    -1.76277    -1.04326
O     -0.98694    -0.82886    -2.62765
H     -1.89423    -0.50615    -2.49479
O     -1.01890     2.62099     2.10267
H     -1.03343     1.64254     2.01083
O      0.36784     2.90414     2.21253
H      0.49455     3.00373     3.16043
O     -1.15073     0.01588     1.65877
H     -1.04422    -0.09464     0.68809
O     -0.45193    -1.09782     2.20376
H      0.48131    -0.81095     2.11310
O     -1.22418     1.70492    -0.57129
H     -0.27511     1.68425    -0.83924
O     -1.52920     3.09829    -0.57402
H     -1.53368     3.24342     0.38264
O     -3.19758     0.18753    -1.35674
H     -2.54990     0.82672    -0.96770
O     -3.36166    -0.74158    -0.28842
H     -4.24177    -0.51572     0.02924
O      2.08728    -0.61425     1.58472
H      2.17268     0.21632     1.06148
O      2.61166    -1.60053     0.69518
H      1.89157    -2.25482     0.68887
O      2.01194    -1.31140    -2.49522
H      1.15957    -0.86054    -2.55526
O      2.76692    -0.38708    -1.70505
H      2.91995    -0.90552    -0.89150
O     -0.37780    -3.34837    -0.29990
H     -0.34216    -4.27699    -0.54117
O      0.46541    -3.29923     0.84030
H     -0.09940    -2.80125     1.45632
