 40
-1516.645838264825
O      0.69262     3.47738     1.90072
H      0.74497     4.39229     1.60494
O      1.85242     2.88565     1.32574
H      1.49299     2.50763     0.48687
O      1.27658    -1.07320    -0.76584
H      1.70091    -1.63270    -0.07398
O      0.52424    -1.99885    -1.54947
H     -0.22845    -2.17484    -0.95219
O     -1.63728     0.28736    -2.66140
H     -1.61784     1.24446    -2.43780
O     -0.28281     0.07155    -3.07898
H     -0.04422    -0.74594    -2.59925
O     -1.34367     1.98371     0.97746
H     -0.64998     2.47112     1.46518
O     -1.37457     0.73850     1.66990
H     -1.65737     0.10872     0.96464
O     -0.57252     3.79058    -1.65694
H      0.22257     3.31360    -1.94512
O     -1.50885     2.72191    -1.59814
H     -1.49098     2.49516    -0.64885
O      1.31002     1.92548    -2.02337
H      0.74798     1.31863    -2.54764
O      0.91295     1.53579    -0.71439
H      1.06912     0.56214    -0.70440
O      1.82498     0.17268     1.84632
H      1.95937     1.12186     2.00490
O      0.83975    -0.16789     2.82779
H      0.01504     0.18563     2.41617
O     -0.55598    -4.76903     0.04658
H      0.25735    -4.63447    -0.45385
O     -0.78786    -3.47348     0.59136
H     -0.11883    -3.39552     1.30008
O      1.28510    -2.72064     2.23410
H      1.10524    -1.79913     2.54095
O      2.34200    -2.53644     1.28699
H      3.07623    -2.23137     1.83062
O     -1.87449    -0.95901    -0.31668
H     -1.93722    -0.53627    -1.20530
O     -3.03108    -1.78901    -0.28479
H     -2.61856    -2.58579     0.07441
