 20
-758.3025814266798
O      1.34211    -2.32679    -0.32719
H      0.42924    -1.98109    -0.36408
O      1.14125    -3.50432     0.45760
H      1.56684    -4.16351    -0.09859
O      1.72726     0.03842     2.09898
H      1.08031     0.72958     1.90038
O      2.41009    -0.03339     0.83869
H      2.23371    -0.95097     0.57333
O      0.86959     1.44119    -0.73249
H      1.61248     0.97364    -0.29329
O      0.18771     1.90108     0.44815
H     -0.65084     2.22124     0.06378
O     -1.10906    -1.24592    -0.31566
H     -1.95983    -1.66813    -0.46688
O     -1.09036    -0.25493    -1.34750
H     -0.27194     0.25273    -1.13017
O     -2.19137     2.68918    -0.50925
H     -2.77016     3.30991    -0.05749
O     -2.98208     1.48943    -0.45554
H     -2.35349     0.87900    -0.87543
