 12
-454.96926240374
O      2.90777    -0.83565    -0.70571
H      2.07182    -1.07434    -0.27532
O      2.87497     0.59232    -0.56866
H      3.50846     0.73470     0.14271
O      0.23553    -0.68086     0.60040
H     -0.63944    -0.72557     0.18930
O      0.35838     0.73256     0.83224
H      1.05416     0.94624     0.19322
O     -3.18937     0.26814    -0.83588
H     -4.05665    -0.15311    -0.83300
O     -2.61167    -0.29237     0.34686
H     -2.51827     0.48899     0.90255
