 36
-1364.9695420579149
O     -0.25158     2.63009     1.11224
H     -0.90233     2.35016     1.76850
O     -0.11367     1.39424     0.41241
H     -0.33822     1.66534    -0.51126
O     -2.09422     0.86638     2.60133
H     -1.63791     0.03912     2.34150
O     -3.44488     0.52197     2.27527
H     -3.86893     1.38453     2.28766
O      2.23623    -2.76348     2.25135
H      2.59000    -2.80311     3.14310
O      1.76423    -1.41854     2.21639
H      2.34475    -1.01072     1.53429
O      2.86746    -0.31506    -0.00126
H      2.19651    -0.67130    -0.62309
O      2.53349     1.07376     0.01609
H      1.58125     1.08984     0.26511
O     -0.86302    -1.27266     1.65477
H      0.10323    -1.36579     1.81346
O     -1.19243    -2.52776     1.03866
H     -2.03615    -2.26002     0.62760
O     -2.23901    -0.40940    -0.64434
H     -1.60358    -0.11353     0.02817
O     -3.22185    -1.08434     0.11860
H     -3.39362    -0.46578     0.85459
O      2.52609     1.10158    -2.65733
H      2.74214     1.18699    -1.70320
O      1.90685     2.37011    -2.91680
H      2.48815     2.74274    -3.58652
O      0.44499    -2.43950    -1.25738
H     -0.09197    -2.47416    -0.44689
O      0.73945    -1.03995    -1.34531
H      0.33028    -0.76482    -2.18174
O     -0.63389     1.94461    -2.15278
H      0.22439     2.11865    -2.58821
O     -1.04075     0.73040    -2.79344
H     -1.64167     0.36755    -2.11983
