 32
-1213.308917663488
O      2.67905     0.32104     1.91319
H      1.79483    -0.06658     2.01123
O      2.41559     1.52653     1.20063
H      1.82787     2.01661     1.80587
O      0.10584    -2.13630    -0.37773
H      0.88153    -1.60514    -0.66514
O     -0.79128    -1.82906    -1.45001
H     -1.62685    -1.63537    -0.97983
O     -0.76221     1.24543     0.14170
H     -0.00434     1.07939    -0.46928
O     -1.74054     1.88047    -0.68254
H     -2.48078     1.28243    -0.51040
O      0.63582     2.92332     2.63064
H      0.44986     3.86350     2.54879
O     -0.65508     2.33225     2.51802
H     -0.68378     2.09151     1.56123
O      1.50653     0.88138    -1.20265
H      2.03162     1.06896    -0.39038
O      1.85581    -0.48326    -1.46328
H      1.76447    -0.52803    -2.43742
O      1.14731    -0.94945    -3.98088
H      1.57345    -1.12063    -4.82527
O      0.86748    -2.27786    -3.53288
H      0.15355    -2.08770    -2.89992
O     -0.95168    -1.14756     1.83759
H     -0.49716    -1.59883     1.09167
O      0.14221    -0.50974     2.49192
H     -0.26061     0.32230     2.78123
O     -3.20162    -0.29493     0.61027
H     -2.41137    -0.51343     1.14392
O     -3.18110    -1.36430    -0.32717
H     -3.82740    -1.98141     0.02951
