 20
-758.2977855327819
O      0.58987    -1.52209     2.55235
H      1.30350    -2.03268     2.94651
O     -0.48226    -2.47624     2.58986
H     -1.22413    -1.88485     2.37230
O      2.42710     0.65225    -2.16262
H      3.21985     0.51719    -2.68784
O      1.88657    -0.67258    -2.12680
H      1.40935    -0.63692    -1.27499
O     -2.11490     0.44887     2.08381
H     -1.46897     0.58792     1.36556
O     -2.52748    -0.88762     1.77313
H     -3.44476    -0.86332     2.05616
O      0.31895    -0.62497     0.05506
H      0.43873    -0.91217     0.98608
O     -0.12449     0.72524     0.24598
H     -0.27805     0.99255    -0.67993
O     -0.08410     1.47517    -2.36340
H      0.85962     1.26246    -2.50939
O     -0.07624     2.90114    -2.43762
H     -0.70974     3.03835    -3.14681
