 28
-1061.6428613550283
O     -1.65872    -1.43489    -1.54561
H     -1.86767    -0.54466    -1.19600
O     -0.92052    -2.01165    -0.46929
H     -0.02040    -1.63795    -0.57634
O     -2.08022    -1.00253     1.70215
H     -1.60892    -1.45181     0.96190
O     -0.97825    -0.61095     2.52721
H     -1.17044    -1.08137     3.34272
O      1.37879    -1.78508     1.12444
H      0.74758    -1.28610     1.65944
O      1.46210    -0.93639    -0.02154
H      1.93939     1.35325     1.79733
O     -0.93636     1.93082     1.57956
H     -0.90015     1.10609     2.08895
O      0.43845     2.11185     1.21377
H      0.37811     1.90646     0.26267
O     -0.48818     1.35882    -1.13833
H     -0.45749     1.05529    -2.07215
O     -1.87276     1.13737    -0.82072
H     -1.85652     1.42623     0.10823
O      3.36065     0.86944     0.70395
H      4.28226     0.75736     0.95301
O      2.71438     0.79544     1.97996
H      2.27182    -0.42223     0.16991
O     -0.02676    -0.90518    -3.61675
H     -0.60327    -1.22317    -2.88955
O     -0.39452     0.47761    -3.64332
H     -1.08504     0.50442    -4.31222
