 36
-1364.9791355361783
O      2.37134     1.66336    -1.66395
H      1.94695     1.89546    -0.80791
O      2.09717     0.26521    -1.70271
H      2.59849    -0.10324    -0.94889
O      1.03095     2.01801     0.58649
H      1.27201     1.43491     1.34471
O     -0.35246     1.74516     0.37983
H     -0.34101     1.23011    -0.44905
O     -1.58614    -0.82425     1.99984
H     -2.40166    -0.60809     1.50927
O     -1.23025     0.46020     2.52391
H     -1.04324     0.97132     1.70684
O     -0.14336     0.16936    -3.03701
H      0.62215    -0.17936    -2.53339
O     -0.22626     1.49689    -2.50703
H      0.70434     1.77702    -2.53739
O     -2.61235    -0.64662    -2.54952
H     -1.72199    -0.28385    -2.78728
O     -2.22445    -1.80754    -1.81085
H     -2.22601    -2.49184    -2.48741
O     -3.26676     1.00475    -0.29978
H     -3.29382     0.48405    -1.11816
O     -3.72750     0.04233     0.64612
H     -4.45072     0.51139     1.07341
O      1.17335     0.05160     3.66932
H      0.27826     0.25193     3.33213
O      1.98591     0.64034     2.64729
H      2.51988    -0.12527     2.37365
O      3.52433    -0.98990     0.14026
H      4.18084    -1.66976    -0.03806
O      2.81936    -1.53284     1.24746
H      1.92887    -1.71876     0.86524
O      0.28028    -1.95973     0.53185
H     -0.27018    -1.63442     1.27235
O     -0.07719    -1.00432    -0.45974
H     -0.90038    -1.37021    -0.83704
