 36
-1364.9781287156063
O      2.14399     3.12476     1.03370
H      2.52266     2.32531     0.61197
O      2.19048     2.73629     2.41019
H      2.83221     3.35919     2.76507
O     -2.95130    -1.79433    -0.59141
H     -2.64077    -1.53326    -1.48616
O     -1.72377    -2.31704    -0.06044
H     -1.77543    -2.02438     0.86148
O     -0.59757     0.03241     1.68602
H     -1.53292     0.31195     1.55884
O     -0.76049    -1.22641     2.33378
H      0.08822    -1.64101     2.12351
O      2.50858    -0.17653     1.19812
H      1.84929     0.34596     1.68041
O      2.87821     0.68801     0.12038
H      2.40051     0.30486    -0.65242
O     -3.02597     0.57351     0.66696
H     -3.21373    -0.27412     0.20667
O     -2.69380     1.41383    -0.45191
H     -2.07078     2.04420    -0.04469
O     -0.50707     2.77357     0.39259
H      0.30228     3.23772     0.67878
O      0.09223     1.66002    -0.27335
H     -0.05750     0.95364     0.38712
O      0.89269    -1.41377    -2.07252
H      1.45780    -1.90461    -1.44201
O      1.46515    -0.10645    -1.98834
H      0.66506     0.44474    -1.91054
O     -1.28071     0.41809    -2.55663
H     -1.90988     0.71458    -1.87727
O     -1.67430    -0.94303    -2.76168
H     -0.79478    -1.35759    -2.73940
O      2.09040    -2.52680     0.04982
H      2.36166    -1.72508     0.54437
O      1.01868    -2.98912     0.86769
H      0.27298    -2.96783     0.24825
