 24
-909.9796257758395
O     -1.51085    -1.49330     0.29907
H     -1.25755    -1.68592     1.21714
O     -2.03277    -0.15993     0.39893
H     -1.24091     0.33788     0.69680
O      1.42212    -2.31704    -0.76937
H      1.27703    -1.98970     0.12864
O      0.43868    -1.60676    -1.51447
H     -0.36057    -1.64165    -0.94148
O      1.26781     0.84891    -2.00594
H      0.85221    -0.04033    -2.05245
O      1.96154     0.73006    -0.75726
H      2.75233     0.23491    -0.99611
O     -0.99283     2.26948    -1.41035
H     -0.14486     2.00961    -1.81403
O     -1.89870     1.42942    -2.13065
H     -2.23383     0.86015    -1.42240
O     -0.06232    -1.36355     2.69253
H     -0.01488    -0.39678     2.65069
O      1.25178    -1.67698     2.23131
H      1.59981    -2.19500     2.96461
O      0.18283     0.99953     1.21226
H      0.91949     0.93676     0.56551
O     -0.15277     2.37935     1.20962
H     -0.56120     2.47168     0.32574
