 32
-1213.3036613376105
O      1.23353    -2.55654     1.41931
H      1.35622    -1.62386     1.64467
O     -0.10820    -2.79985     1.84887
H     -0.51012    -3.07319     1.01277
O      1.66482    -1.60776    -1.23935
H      1.60253    -2.36319    -0.63043
O      1.95219    -2.19502    -2.50394
H      1.05794    -2.40830    -2.79845
O     -2.08663     0.74184    -0.90696
H     -2.00802     0.30860    -0.03245
O     -0.96549     0.15704    -1.57509
H     -0.19729     0.61043    -1.19001
O     -1.91460     3.16663     0.65994
H     -2.21216     2.50130     0.01720
O     -0.71738     2.53585     1.13320
H     -0.03449     2.93202     0.53888
O      0.91737     3.67715    -0.60191
H      0.91408     4.62948    -0.74633
O      2.28067     3.42314    -0.22347
H      2.23572     2.45243    -0.21376
O     -1.26410    -2.37299    -0.81153
H     -1.11209    -1.48715    -1.21649
O     -0.89803    -3.26265    -1.86697
H     -1.75910    -3.55063    -2.18380
O     -2.01647     0.53264     2.29468
H     -1.62587     1.39561     2.05037
O     -1.28527    -0.27148     1.35219
H     -1.08009    -1.08665     1.83874
O      1.67133     0.79885    -0.10542
H      1.83734    -0.06867    -0.52795
O      1.52254     0.41632     1.27270
H      0.61289     0.72253     1.44124
