 32
-1213.3125340518532
O      2.06455     0.94091    -0.72497
H      1.20002     1.36579    -0.54634
O      1.76495    -0.09931    -1.64205
H      1.52230    -0.84876    -1.05618
O     -1.32682    -0.87351     2.05918
H     -1.69895    -0.86467     1.15701
O     -0.04656    -1.47608     1.87174
H      0.55851    -0.72074     2.04359
O      0.14290    -1.75259    -3.74598
H      0.60194    -1.92194    -4.57429
O      0.08511    -0.33280    -3.69867
H      0.79424    -0.15147    -3.04724
O      2.89580     0.12191     1.70294
H      2.83454     0.48345     0.79912
O      1.62675     0.54886     2.20126
H      1.86314     1.03956     2.99475
O     -0.02867     2.32329     0.25454
H     -0.07907     2.10320     1.21033
O     -1.42727     2.47674    -0.01708
H     -1.60101     1.59853    -0.39763
O      0.89500    -2.33784    -0.46703
H      0.47013    -2.18497     0.40563
O     -0.21793    -2.71782    -1.27635
H      0.06709    -2.41222    -2.15982
O     -2.07382    -0.93297    -0.58930
H     -1.52553    -1.71670    -0.80929
O     -1.24907     0.10020    -1.14427
H     -1.30619    -0.02844    -2.10523
O     -0.97930     1.70728     2.61083
H     -1.18227     0.74947     2.56054
O     -2.29690     2.26721     2.59321
H     -2.28007     2.68440     1.71833
