 20
-758.3083780040167
O     -0.56227    -1.57373     2.20541
H     -0.81886    -2.21711     1.53248
O     -0.72903    -0.35870     1.47303
H      0.20098    -0.07573     1.36823
O      1.75008     0.55795     1.17470
H      2.62652     0.23284     1.39995
O      2.01517     1.50507     0.14183
H      1.67415     1.02041    -0.63932
O      0.43758    -2.47000    -0.99718
H      0.39469    -3.18228    -1.64530
O     -0.91071    -2.44755    -0.51303
H     -1.16443    -1.54793    -0.77148
O     -0.61697     0.21187    -1.53068
H     -0.65585     1.13057    -1.18489
O      0.79560     0.06893    -1.75855
H      0.89150    -0.86217    -1.49725
O     -1.61654     2.38741     0.72311
H     -1.54960     1.43806     0.91889
O     -0.64057     2.55096    -0.30244
H      0.19892     2.61440     0.17960
