 20
-758.3108102196878
O      0.37895    -1.15236     1.82330
H      0.69106    -1.50123     0.96620
O     -1.03420    -1.39606     1.77948
H     -1.33194    -0.56505     2.17339
O      1.44495    -1.69975    -0.56246
H      2.12163    -2.33314    -0.82208
O      2.24277    -0.54203    -0.30416
H      1.83426     0.09091    -0.94290
O      0.34678     1.49471     1.40539
H      0.63917     0.59388     1.63929
O     -1.07042     1.36539     1.58601
H     -1.38296     1.23787     0.67844
O      0.78223     0.97687    -1.85153
H     -0.09730     0.56562    -1.85516
O      0.54503     2.22614    -1.20831
H      0.63749     1.98698    -0.26703
O     -2.24075    -0.26896    -0.57660
H     -1.90096    -0.95893     0.01315
O     -1.49349    -0.54148    -1.75834
H     -2.18999    -0.68953    -2.40492
