 36
-1364.9705961380864
O      0.47489     2.61880    -1.22699
H     -0.04780     1.83620    -1.52900
O     -0.53164     3.43208    -0.62518
H     -1.32959     3.21558    -1.13051
O     -2.25890    -0.30371     0.78729
H     -2.09456    -0.03912     1.70390
O     -3.09497    -1.45494     0.88885
H     -2.53488    -2.10364     0.43484
O      0.06426    -0.49887     3.83421
H      0.78873    -0.39796     3.19695
O      0.15578     0.74096     4.55227
H      0.35208     0.43725     5.44518
O      0.61929    -0.52486     0.42924
H      0.13197     0.25097     0.79258
O      1.79952    -0.46914     1.23758
H      2.34547     0.08961     0.65337
O     -0.26294     1.73872     1.45277
H     -0.34141     2.47400     0.80149
O     -1.42265     1.89464     2.27936
H     -1.00113     1.82969     3.14692
O     -2.37494     0.95157    -1.53926
H     -2.47065     0.55788    -0.64736
O     -1.02693     0.55526    -1.83439
H     -1.10383    -0.42929    -1.89058
O      2.70393     1.04598    -0.82909
H      2.13422     1.83549    -0.83822
O      2.15603     0.33536    -1.94258
H      1.36639    -0.05616    -1.53870
O     -0.73774    -2.61852    -0.56317
H     -0.23354    -1.88624    -0.15481
O     -0.88724    -2.13142    -1.90126
H     -0.06427    -2.45830    -2.30824
O      1.65078    -2.77930    -2.39572
H      2.01542    -3.42179    -1.77811
O      2.80041    -2.30904    -3.10257
H      2.84719    -1.39830    -2.77285
