 36
-1364.9731596590068
O      3.25252    -0.14413     1.51403
H      3.38044    -0.57566     0.64543
O      4.58104     0.26236     1.83287
H      4.67404    -0.11938     2.70997
O     -2.14423    -1.54228     1.62958
H     -1.20575    -1.72234     1.39075
O     -1.97685    -0.47432     2.57745
H     -2.62478     0.14858     2.20451
O      2.87646    -2.41303    -1.15737
H      3.72072    -2.86661    -1.21079
O      3.30855    -1.06165    -1.02401
H      2.59302    -0.58744    -1.49368
O     -0.63722     2.30440    -1.16486
H     -1.34831     2.21010    -1.81486
O     -1.38257     2.44314     0.04655
H     -0.66333     2.59637     0.67505
O     -2.31413     0.33220    -2.53065
H     -2.88494     0.22413    -1.73768
O     -2.58290     1.67331    -2.90796
H     -2.57501     1.59642    -3.86566
O     -3.40383     0.84751     0.77643
H     -2.68059     1.39911     0.42195
O     -3.49149    -0.19580    -0.19992
H     -3.06328    -0.92216     0.30085
O      1.12207     0.32264    -1.81750
H      0.92712     0.90086    -1.05474
O      0.06524    -0.63433    -1.69997
H     -0.69423    -0.16807    -2.10586
O      1.03887     1.39914     0.99429
H      1.81108     0.90965     1.33390
O      0.22783     1.56435     2.15131
H     -0.27185     0.73540     2.16710
O      0.75178    -2.86813     0.51808
H      1.52571    -2.71441    -0.03912
O      0.35174    -1.52315     0.79517
H      0.19614    -1.15272    -0.10745
