 36
-1364.9736819400584
O      2.72681     0.54119     0.28047
H      2.85832     1.45854     0.58144
O      2.09870    -0.04031     1.43324
H      2.07528    -0.98559     1.17070
O     -1.28168    -1.59675    -2.29220
H     -0.56664    -1.80590    -1.66644
O     -0.82832    -0.41781    -2.94323
H     -0.57664     0.16152    -2.19712
O      2.08931    -1.13144    -1.99135
H      2.48908    -0.34345    -1.59155
O      2.14585    -0.82839    -3.38270
H      1.20197    -0.78856    -3.59387
O      0.28385    -2.40257     0.15383
H     -0.02343    -1.97682     0.97937
O      1.70044    -2.42351     0.33504
H      1.99315    -2.25822    -0.57687
O     -2.75466    -1.95811     0.34397
H     -3.51684    -2.54306     0.39717
O     -3.22110    -0.97002    -0.57910
H     -2.65119    -1.16870    -1.35807
O     -2.78997     1.53398     0.47394
H     -3.07912     0.66530     0.13482
O     -3.02945     1.42090     1.87706
H     -2.12894     1.47625     2.22343
O      1.51682     2.76561     1.70090
H      0.82337     2.69753     1.01440
O      2.63281     3.18982     0.91245
H      3.10231     3.74084     1.54428
O      0.10148     0.98388    -0.81987
H      0.71726     0.57116    -0.18921
O     -0.30548     2.17667    -0.14738
H     -1.23358     1.94476     0.09910
O     -0.66582    -0.94552     2.18441
H     -1.56819    -0.91745     1.83354
O     -0.37413     0.44953     2.35547
H      0.58203     0.45722     2.15701
