 40
-1516.6483720923106
O      3.56669    -0.58950     0.44762
H      3.47335    -1.00610     1.32423
O      3.07584    -1.61735    -0.41362
H      2.49683    -1.11539    -1.02289
O     -0.49237    -0.57044     0.65622
H     -0.88120     0.27328     1.01217
O     -1.68928    -1.34790     0.53277
H     -2.02305    -1.01390    -0.33194
O     -0.94419     2.77286     1.86727
H     -0.02293     2.45391     1.85410
O     -1.65110     1.56153     1.59213
H     -2.40068     1.88480     1.05200
O      1.83641     1.47140     0.36833
H      2.58746     0.83944     0.37491
O      1.54493     1.65026     1.75395
H      1.29062     0.75366     2.02034
O     -3.20411     2.20596    -1.35723
H     -2.26373     2.47506    -1.25780
O     -3.67709     2.28712    -0.01397
H     -4.23961     3.06763    -0.03706
O     -0.56358     2.23170    -1.14958
H      0.34443     2.04847    -0.84628
O     -0.44938     2.13599    -2.56738
H     -0.89441     1.28487    -2.73158
O     -2.64542    -0.43764    -1.75737
H     -2.99833     0.46721    -1.66217
O     -1.72979    -0.25420    -2.84063
H     -1.04646    -0.93554    -2.66004
O      0.08063    -3.27006    -0.01225
H     -0.63583    -2.74315     0.39157
O      1.17065    -3.03027     0.87775
H      1.87800    -2.72405     0.27944
O      0.37008    -1.77178    -2.24197
H      0.29643    -2.41231    -1.50473
O      0.91330    -0.62061    -1.60332
H      0.33735    -0.50541    -0.80702
O      2.94879    -1.38045     2.94697
H      3.03955    -1.70651     3.84839
O      1.53850    -1.16975     2.84414
H      1.29100    -1.88517     2.22599
