 36
-1364.9837323958675
O      1.58793     2.31315     1.16504
H      0.95409     2.48995     1.88693
O      1.50488     0.88740     1.11743
H      0.55712     0.78352     0.88157
O      0.22222    -1.63282     0.24742
H      1.07684    -1.42641    -0.19789
O     -0.61591    -1.89845    -0.88513
H     -0.95193    -0.98126    -1.02680
O     -1.19652    -1.01805     2.46246
H     -0.60683    -1.27612     1.72701
O     -2.38096    -0.64820     1.75838
H     -2.68336    -1.49019     1.35883
O      2.30584    -1.01972    -1.23858
H      2.03085    -0.75314    -2.14117
O      3.07965     0.12209    -0.84591
H      2.61461     0.37197    -0.01772
O     -0.44942     2.39200     2.91021
H     -0.94888     3.11602     3.30193
O     -0.26632     1.49670     4.00348
H     -0.74299     0.71985     3.66996
O     -0.98856     1.01982     0.29170
H     -1.64982     0.45422     0.76539
O     -1.11609     0.64462    -1.08123
H     -0.34696     1.14491    -1.42322
O      1.24116    -0.13045    -3.49458
H      1.08414     0.80400    -3.27954
O     -0.07368    -0.66221    -3.63615
H     -0.07320    -1.33707    -2.94446
O      2.19767     2.27046    -2.22948
H      2.74397     1.55926    -1.84363
O      1.02259     2.13815    -1.43807
H      1.30905     2.39504    -0.53156
O     -3.44812    -2.66060     0.32323
H     -4.20003    -3.22587     0.52230
O     -2.40645    -3.63143     0.13263
H     -1.74617    -3.06661    -0.31373
