 28
-1061.6481744585744
O      0.48391    -1.01736    -0.14484
H      0.13976    -0.35999    -0.78802
O      1.60894    -1.55278    -0.83008
H      2.14354    -0.72802    -0.93412
O      3.69880     0.79244     0.05270
H      3.27686     0.32585     0.79212
O      2.62353     0.87374    -0.87317
H      2.03295     1.51896    -0.44502
O     -2.67942    -0.16411     0.64605
H     -2.47000    -1.10424     0.55200
O     -1.76097     0.24583     1.66169
H     -1.52049    -0.63442    -2.19568
O     -1.75156    -2.64727    -0.57600
H     -0.83822    -2.30979    -0.52525
O     -2.13741    -2.26851    -1.89607
H     -1.99494    -3.07805    -2.39688
O      0.77727     2.21418     0.65126
H      0.87542     1.71513     1.49278
O     -0.63681     2.42431     0.61071
H     -0.82661     2.34388    -0.33751
O     -1.94384     1.11456    -1.58624
H     -2.34753     0.66162    -0.82128
O     -0.97637     0.15800    -2.01880
H     -1.45363     1.10011     1.30061
O      0.94391     0.48593     2.67116
H      0.10446     0.00568     2.58707
O      1.87662    -0.33554     1.96862
H      1.34040    -0.68684     1.22644
