 32
-1213.3056090505104
O      0.09874    -0.50801     1.30022
H      1.06785    -0.63616     1.21955
O     -0.07176     0.26777     2.49497
H      0.38094     1.09683     2.21608
O      1.67193    -1.98162    -0.78205
H      1.13772    -2.58992    -0.23549
O      2.39381    -1.26475     0.22342
H      2.79963    -0.54630    -0.30244
O      0.48713     0.26085    -1.68545
H      0.74234    -0.67375    -1.54038
O     -0.39923     0.19579    -2.80827
H     -1.15049     0.67756    -2.41864
O     -2.32557     1.23413    -1.19335
H     -2.84466     0.44838    -0.91256
O     -1.57477     1.49968    -0.00336
H     -0.86558     0.84145    -0.10032
O      2.46468     1.88710    -0.96844
H      1.72240     1.39429    -1.38330
O      3.47399     0.87809    -0.95637
H      4.11155     1.22423    -1.58792
O     -3.64384    -0.71916     1.22242
H     -3.05570     0.02724     1.40941
O     -3.29637    -1.02565    -0.13009
H     -2.66777    -1.75746    -0.00303
O     -0.06389    -3.53671     0.55832
H     -0.47395    -4.37963     0.34643
O     -1.20945    -2.68737     0.64184
H     -0.78533    -1.90391     1.06036
O      1.25384     2.32732     1.43512
H      1.83565     2.26611     0.65532
O      0.27940     3.27969     1.00512
H     -0.46299     2.71068     0.74225
