 28
-1061.6389654514876
O      2.21955    -2.06537    -1.54474
H      1.84786    -1.93714    -0.65421
O      2.20823    -0.72639    -2.04484
H      2.92662    -0.29442    -1.55694
O      0.56893    -1.42703     2.04697
H     -0.06756    -2.04828     1.66832
O      1.44634    -1.30199     0.92505
H      1.92214    -0.47113     1.11933
O      0.32885     1.41878    -0.62032
H     -0.15242     1.33225     0.24186
O     -0.12255     0.27695    -1.35662
H     -1.08058    -1.26215    -0.39463
O     -3.11444     0.94513    -0.80427
H     -4.03378     1.17618    -0.97592
O     -2.42058     1.90141    -1.61244
H     -1.74315     1.32600    -1.98420
O     -2.21836     1.36500     1.77313
H     -2.47156     1.19591     0.85042
O     -0.80879     1.12774     1.74053
H     -0.73256     0.22242     2.07706
O     -2.50200    -1.59815     0.79927
H     -3.22622    -1.95527     0.27231
O     -1.34631    -2.05529     0.09592
H      0.73711    -0.10861    -1.64618
O      2.95410     1.36865    -0.26848
H      1.98427     1.47285    -0.39492
O      2.98423     0.82408     1.04668
H      3.34504     1.55133     1.56212
