 40
-1516.6425319670534
O     -1.56108    -0.32576     2.74879
H     -2.16398    -0.13686     1.99714
O     -1.45211    -1.74646     2.70841
H     -0.96395    -1.88792     1.88289
O      1.90650     0.59792    -1.87118
H      2.46472    -0.13072    -1.57059
O      1.53949     1.13635    -0.59999
H      0.97740     1.88824    -0.89162
O      1.04757    -0.00820     2.47308
H      0.09165    -0.07574     2.71405
O      1.14256     1.36136     2.05490
H      1.43706     1.25711     1.12808
O     -0.98839     3.80359     1.35775
H     -1.45909     4.27274     2.05273
O     -1.23970     2.44988     1.72744
H     -0.33931     2.13262     1.99606
O     -2.27261     1.11756    -0.35181
H     -1.88993     1.63251     0.39271
O     -2.60285    -0.11067     0.29916
H     -1.85413    -0.67723     0.01440
O     -0.69604    -2.25851    -1.22416
H     -0.73762    -1.58495    -1.94965
O     -0.32784    -1.38950    -0.15688
H      0.64904    -1.32101    -0.27156
O     -0.28419     3.22244    -2.78950
H     -0.72981     2.38716    -3.03377
O     -0.14015     3.01962    -1.38238
H     -0.85666     3.53699    -0.99037
O      0.76945    -3.99443     0.41751
H      0.21462    -3.64393    -0.29242
O      1.96710    -4.26844    -0.30954
H      2.23586    -5.10786     0.07241
O      2.29844    -1.60168    -0.22549
H      2.40235    -2.56962    -0.13170
O      3.04029    -1.09626     0.89526
H      2.31452    -0.84960     1.49297
O     -0.42696    -0.22495    -2.86841
H      0.37864     0.25010    -2.58256
O     -1.43427     0.77944    -2.85322
H     -1.72655     0.77636    -1.91908
