 32
-1213.3165937837734
O      2.55525     1.79136     2.31148
H      2.77755     2.69441     2.55311
O      2.04362     1.97017     0.99694
H      1.07025     1.87374     1.13795
O     -2.00961    -2.13560    -0.67532
H     -2.25420    -1.38694    -1.24922
O     -0.59795    -2.19367    -0.89425
H     -0.24284    -1.97475    -0.01649
O     -1.32791     1.07575    -1.41876
H     -0.70974     0.66342    -2.05234
O     -2.54349     0.35357    -1.63836
H     -3.02827     0.62399    -0.82730
O     -0.58652     1.60071     1.05560
H     -0.90075     1.31385     0.16324
O     -0.99665     0.53206     1.91791
H     -0.25339    -0.09550     1.78765
O      2.87726     0.59965    -1.17217
H      2.68528     1.07935    -0.34511
O      3.00417    -0.75161    -0.70286
H      2.61522    -1.21423    -1.46913
O      0.84258     0.09899    -2.77429
H      1.60661     0.54425    -2.35857
O      1.24111    -1.26181    -2.58813
H      0.48512    -1.61533    -2.08605
O      1.05863    -0.93750     1.14893
H      1.83582    -0.90784     0.53594
O      1.63627    -1.20098     2.41693
H      1.95762    -0.32034     2.65239
O     -3.96649    -0.55318     1.13834
H     -3.28797    -1.15072     0.78978
O     -3.41832     0.72832     0.83756
H     -2.64740     0.78601     1.44164
