 20
-758.2989972674508
O     -0.96460    -0.00486     2.12590
H     -0.79245    -0.91923     2.37104
O     -1.65059    -0.15762     0.88048
H     -0.92365     0.03888     0.24722
O      0.11074     0.33827    -0.98508
H      1.05334     0.13518    -0.82009
O     -0.27530    -0.78712    -1.77314
H     -1.14023    -0.48412    -2.07644
O      1.24132     1.48409     1.67555
H      0.42851     0.99737     1.90568
O      2.20521     0.74485     2.43365
H      2.65150     1.45911     2.89672
O      3.68702     0.19622    -1.03442
H      4.07994    -0.64962    -1.26319
O      2.61769    -0.24163    -0.19174
H      2.78281     0.24968     0.62883
O     -3.13124    -0.14246    -1.66800
H     -2.98272    -0.24676    -0.71563
O     -4.05892    -1.19616    -1.93060
H     -4.86886    -0.70197    -2.09258
