 32
-1213.3162798712528
O      1.28016    -1.29781     0.70540
H      1.56549    -0.75345     1.48330
O      0.33871    -2.20133     1.28134
H      0.12146    -2.73865     0.50167
O     -0.40619    -3.57335    -0.90544
H     -0.77552    -4.44617    -1.06560
O     -0.75242    -2.86112    -2.08108
H     -1.46321    -2.27508    -1.74288
O     -2.32023     0.08852    -1.97799
H     -1.45496    -0.07532    -2.38099
O     -2.41524    -1.02718    -1.09288
H     -2.09774    -0.65930    -0.23907
O     -1.31401     2.12380    -0.55797
H     -1.89413     1.55793    -1.10275
O     -0.19477     2.31282    -1.42264
H      0.15077     1.39776    -1.51298
O      1.05685     3.31491     0.74989
H      0.62412     3.12878    -0.10930
O      2.24165     2.52100     0.63527
H      2.92259     3.19451     0.54674
O      1.27073    -1.02080    -2.55970
H      0.76311    -1.84546    -2.53445
O      0.51335    -0.25613    -1.62019
H      0.84878    -0.59590    -0.75858
O      2.05262     0.49345     2.47718
H      2.08065     1.34933     2.00632
O      1.10135     0.72398     3.51464
H      0.28807     0.82827     2.98820
O     -0.99803     0.96340     1.84212
H     -0.96410     1.54575     1.05862
O     -1.45575    -0.26246     1.26745
H     -0.78134    -0.91633     1.55155
