 40
-1516.632111666289
O      3.50974    -0.38827     0.18952
H      3.83035    -0.70096     1.05962
O      3.03257    -1.61495    -0.35613
H      2.43209    -1.32547    -1.07945
O     -1.71278     0.23805     1.04246
H     -2.17175     0.79890     1.68349
O     -2.30659    -1.05331     1.20111
H     -2.51239    -1.23833     0.26950
O     -0.60337     2.94111     0.58244
H      0.19915     2.42875     0.80672
O     -1.31049     2.91454     1.83071
H     -2.18665     3.15930     1.50885
O      1.47928     1.25534     0.84337
H      2.39485     0.94955     0.69965
O      0.82951     0.05027     0.41081
H     -0.09808     0.20990     0.65746
O     -3.05946     2.16846    -0.89238
H     -2.12531     2.38857    -0.73160
O     -3.69578     2.80242     0.21655
H     -4.10713     3.56535    -0.20483
O     -0.03178     1.24455    -1.91073
H      0.55805     2.00365    -1.94626
O     -0.87476     1.44645    -3.05122
H     -1.29581     0.56394    -3.08335
O     -2.86169    -0.82566    -1.52438
H     -2.91171     0.13904    -1.43915
O     -2.10976    -0.96792    -2.72788
H     -1.36457    -1.53469    -2.42357
O      0.16134    -2.66964     0.82837
H     -0.45004    -2.12001     1.34154
O      1.38595    -2.51510     1.54705
H      2.01187    -2.28177     0.82773
O      0.07010    -2.14982    -1.78756
H      0.18159    -2.28150    -0.82006
O      1.08167    -1.18848    -2.10595
H      0.61512    -0.33610    -1.98140
O      4.06211    -1.09865     2.68704
H      4.30461    -1.92236     3.12404
O      2.87593    -0.68880     3.36746
H      2.18676    -1.09921     2.81355
