 20
-758.3020729633649
O     -1.50205    -1.69591     1.30996
H     -0.55192    -1.64166     1.50118
O     -1.86663    -0.33379     1.58568
H     -2.51997    -0.44702     2.28245
O      3.81474     0.19904     0.24429
H      2.98851     0.05701     0.73136
O      3.35177     0.33942    -1.09918
H      3.51103    -0.53465    -1.47172
O      1.02297    -0.37794     1.34420
H      0.77469    -0.00376     0.46939
O      0.57390     0.65213     2.23276
H     -0.38031     0.58192     2.08538
O      0.71836     0.84922    -0.99725
H      1.66876     0.87329    -1.21333
O      0.27762    -0.21201    -1.85739
H     -0.61993     0.09640    -2.04633
O     -2.36198     0.66183    -1.17383
H     -2.27491     0.22815    -0.31176
O     -3.45814    -0.06125    -1.74436
H     -4.08981     0.65040    -1.88579
