 28
-1061.638915068197
O     -1.24418     1.83475    -0.62521
H     -2.15175     1.95863    -0.91913
O     -1.45222     1.53770     0.76489
H     -0.56395     1.72285     1.13354
O      2.32652     0.55635    -0.41247
H      2.51916     0.17350    -1.29612
O      1.88559    -0.59410     0.32487
H      1.04106    -0.82908    -0.12141
O     -0.94127    -0.30791     3.15711
H     -0.13282     0.23398     3.14594
O     -0.68421    -1.10138     1.98963
H     -0.50361     0.55852    -1.51806
O      1.84134    -1.32704    -3.10943
H      1.02247    -0.86380    -2.85498
O      2.78440    -0.26299    -2.92415
H      3.58814    -0.67338    -3.25304
O     -3.79906    -0.31835    -0.25786
H     -4.46561    -0.98783    -0.08545
O     -2.62810    -1.01616     0.14549
H     -2.27907    -0.44684     0.85280
O     -0.28083    -1.26533    -1.10856
H     -1.18486    -1.27722    -0.73612
O     -0.38794    -0.22764    -2.09191
H     -0.83912    -1.99444     2.30486
O      1.09512     1.87611     1.53270
H      1.66760     1.66933     0.76833
O      1.47588     0.87547     2.48545
H      1.69781     0.13628     1.88765
