 40
-1516.6359095961961
O      0.68696    -1.29344    -1.73033
H      0.75162    -2.12758    -1.23283
O     -0.32146    -1.56466    -2.70002
H     -1.11125    -1.21028    -2.25951
O      1.45494    -0.29861     2.43798
H      1.57711     0.65769     2.46770
O      1.38974    -0.47960     1.02249
H      1.78676    -1.36119     0.91238
O     -1.01780     1.09308     1.05206
H     -0.09807     1.19851     0.74268
O     -1.65626     2.28409     0.55899
H     -2.31068     1.86676    -0.03285
O     -2.27739    -1.55259     1.31323
H     -1.90466    -1.29040     2.19150
O     -1.11071    -1.91204     0.57106
H     -0.59283    -1.08620     0.59269
O     -1.16426     0.63413     3.65554
H     -1.23781     0.88494     2.71565
O     -0.95352    -0.77573     3.53183
H     -0.00887    -0.79758     3.29230
O      1.03291     3.40382    -0.25184
H      0.16244     3.48178     0.15866
O      1.57699     2.32126     0.52346
H      2.01405     1.78536    -0.17712
O      0.09685     1.43629    -3.45490
H      0.09004     0.48372    -3.30426
O     -0.48108     1.89868    -2.23055
H      0.21082     2.47112    -1.86198
O     -2.56462     0.23991    -2.06765
H     -1.91331     0.96906    -2.13077
O     -3.22165     0.56770    -0.84514
H     -3.07057    -0.22074    -0.30305
O      1.64104    -3.04079     0.34538
H      2.16668    -3.82156     0.15764
O      0.86384    -3.45791     1.47469
H      0.01305    -3.03549     1.23655
O      2.34515     0.77455    -1.50221
H      1.72541     0.02414    -1.63375
O      3.55975     0.06842    -1.27543
H      4.10212     0.42848    -1.98188
