 24
-909.9767207436745
O     -2.70646     1.06406     1.45966
H     -3.30085     1.00297     0.69917
O     -2.38613    -0.30951     1.71964
H     -2.04954    -0.59293     0.84103
O      1.38147    -1.73176    -2.24666
H      2.18302    -1.32911    -1.88923
O      0.57398    -0.56014    -2.36875
H      0.29165    -0.58313    -3.28979
O      2.94850    -0.61481    -0.15237
H      2.29498    -0.95893     0.48274
O      2.54316     0.74849    -0.25983
H      3.19874     1.21302     0.27548
O     -1.99065     0.53033    -1.47153
H     -1.26599     1.12543    -1.19158
O     -1.57977    -0.66378    -0.79359
H     -0.70298    -0.82557    -1.19451
O      0.55156    -0.90989     1.47445
H      0.41882     0.05271     1.35098
O      0.21248    -1.05241     2.84873
H     -0.74051    -0.88242     2.81590
O      0.08582     1.80076    -0.37766
H      0.95613     1.37583    -0.48767
O     -0.09138     1.65394     1.04089
H     -1.06587     1.54829     1.12255
