 36
-1364.9697313903082
O      2.48128     1.47389    -0.84478
H      1.87398     1.17950    -0.14623
O      3.57512     0.57764    -0.69112
H      3.33852    -0.14373    -1.29423
O     -2.81073    -2.61398     1.99306
H     -2.95853    -3.49021     2.36346
O     -2.22501    -2.90834     0.72854
H     -1.30414    -2.61789     0.86924
O      1.34237     1.16849     1.85879
H      2.09406     1.66919     2.19041
O      0.23798     2.01194     2.18863
H     -0.08200     2.21979     1.28513
O      1.15447     1.06674    -3.11317
H      1.74148     1.20663    -2.33847
O      0.11799     0.25756    -2.52771
H      0.38662    -0.62820    -2.83535
O     -2.92024     0.58047     0.45082
H     -2.58029     0.56697     1.36768
O     -1.98919    -0.25531    -0.23897
H     -2.42704    -1.12056    -0.21534
O     -0.65480     2.15404    -0.30323
H     -1.50308     1.80223    -0.62832
O     -0.24609     3.15341    -1.23035
H      0.08382     2.60939    -1.96049
O      0.21101    -1.76099     0.88424
H      0.14455    -1.15037     1.63700
O      0.83827    -0.94074    -0.09420
H      0.10011    -0.42310    -0.48224
O     -1.90585     0.52305     2.98845
H     -1.12249     1.09554     2.89805
O     -1.28409    -0.75288     3.15426
H     -1.96146    -1.33164     2.76033
O      1.54662    -1.96257    -3.10454
H      2.14429    -1.68364    -3.80271
O      2.41818    -1.93114    -1.96616
H      1.78531    -1.66908    -1.26783
