 36
-1364.976709053398
O      2.11769    -0.54964     0.19447
H      2.20337    -1.46116    -0.17974
O      2.08120    -0.84519     1.59066
H      2.27110     0.03757     1.93579
O     -0.32082    -1.99904     1.93893
H      0.55191    -1.59311     1.76895
O     -0.60137    -2.67155     0.71597
H     -1.06955    -1.98086     0.21383
O      0.48880     1.83042     2.69574
H      0.56219     2.60218     3.26953
O      1.68624     1.87329     1.92488
H      1.32941     2.15212     1.06589
O      2.07486     0.57401    -2.27663
H      2.20610     0.31562    -1.34576
O      1.48227    -0.61610    -2.80704
H      0.58827    -0.58622    -2.41240
O     -2.96393     2.20036    -0.12578
H     -2.56397     1.55483     0.49996
O     -3.45019     1.31040    -1.13533
H     -4.40180     1.39105    -1.02810
O     -0.07173     2.56868    -0.34098
H     -1.00495     2.76986    -0.52623
O      0.59690     3.03663    -1.51017
H      0.81940     2.19731    -1.94270
O     -1.79100    -0.82400    -0.95702
H     -2.52367    -0.18447    -1.05542
O     -0.70348    -0.02839    -1.43234
H     -0.47691     0.50678    -0.64831
O     -1.44244     0.63858     1.33110
H     -0.75260     1.02912     1.90286
O     -2.19375    -0.15317     2.25200
H     -1.62710    -0.95438     2.24884
O      1.01153    -3.56498    -1.27709
H      0.53295    -3.27123    -0.48309
O      2.21005    -2.78756    -1.19835
H      2.21932    -2.37405    -2.07600
