 24
-909.9725603186722
O     -2.56645    -0.74201     1.12245
H     -2.43680    -0.36059     0.23226
O     -1.67606    -1.85010     1.09305
H     -2.28341    -2.59585     1.13277
O      1.22773    -1.61755    -1.01912
H      1.37625    -0.90434    -1.67862
O     -0.19096    -1.78253    -1.14898
H     -0.50048    -1.72460    -0.23161
O      2.58829     0.47055     0.94818
H      3.51713     0.31035     1.14108
O      2.00128    -0.75495     1.38768
H      1.72422    -1.15020     0.52841
O     -1.03576     1.38685    -1.09541
H     -0.74695     1.28074    -0.15928
O     -2.27407     0.68191    -1.12626
H     -2.88739     1.39454    -1.32847
O      2.06317     1.59631    -1.78293
H      2.11105     1.23436    -0.88868
O      1.21859     0.64418    -2.42628
H      0.33296     0.97982    -2.20231
O     -1.06199     1.21860     2.46563
H     -1.60509     0.46224     2.20097
O     -0.10719     1.22154     1.39503
H      0.65663     0.74957     1.77190
