 36
-1364.9662396188196
O      0.22680     1.28857    -0.57792
H     -0.54543     1.63329    -1.06868
O      1.30732     2.09967    -1.04238
H      1.78799     1.44820    -1.57378
O     -1.21293    -0.81994    -2.21440
H     -0.23506    -0.86886    -2.22215
O     -1.54167    -1.61616    -1.07360
H     -1.85959    -0.94228    -0.43737
O      0.01003    -0.03480     2.27363
H      0.35513     0.86351     2.49850
O      0.94862    -0.90901     2.89547
H      0.68003    -1.73680     2.47421
O      2.45237    -0.55377     0.38178
H      1.72273    -0.37281     1.00657
O      3.16614    -1.63757     0.97688
H      3.64257    -1.20959     1.69640
O      0.84067     2.44006     2.05743
H      0.89478     2.50106     1.09079
O     -0.44337     2.96441     2.37986
H     -1.02922     2.55621     1.72505
O     -2.29937     0.09966     0.84091
H     -1.50849     0.11076     1.41678
O     -2.54361     1.49840     0.66417
H     -3.14798     1.48888    -0.09594
O      1.48476    -1.06779    -2.08322
H      1.83787    -0.94518    -1.17189
O      2.28188    -0.13679    -2.82279
H      2.86485    -0.73031    -3.30476
O     -2.34627     1.56673    -2.16512
H     -2.11883     0.62080    -2.28532
O     -3.72921     1.46871    -1.82887
H     -4.07549     2.23621    -2.29126
O      1.08250    -3.93731     0.50729
H      1.90973    -3.44321     0.46263
O      0.18738    -2.87466     0.84971
H     -0.28900    -2.69827     0.01879
