 36
-1364.9789549868674
O      0.53738     2.61880     1.30918
H     -0.34979     2.99526     1.21685
O      0.26977     1.51319     2.17225
H      1.03607     0.92863     1.99721
O     -2.46053     0.04529    -0.77169
H     -1.86756     0.81615    -0.76782
O     -3.33077     0.32669     0.32306
H     -2.81963    -0.00995     1.09142
O      1.54600    -1.02268     2.86375
H      0.61751    -1.29472     2.74989
O      1.81504    -0.52847     1.54576
H      2.37252    -1.22919     1.16463
O      0.44369     1.35541    -2.09647
H      1.15943     0.73722    -2.36897
O      0.28011     0.92550    -0.73573
H      0.64679     1.66820    -0.20826
O     -1.03576    -1.49751     2.22167
H     -0.98847    -1.58684     1.25768
O     -1.75087    -0.27812     2.39817
H     -1.04307     0.39842     2.39278
O     -1.81771     2.92759    -0.22779
H     -2.09028     3.59567    -0.86724
O     -2.87008     2.98610     0.74678
H     -3.27375     2.10819     0.59654
O      2.33324    -0.43816    -2.71081
H      2.62425    -1.05739    -2.01583
O      1.70024    -1.28142    -3.66397
H      0.82035    -1.39189    -3.27554
O     -0.71892    -1.71358    -1.80848
H     -1.46346    -1.10502    -1.63872
O     -0.04377    -1.63303    -0.55216
H      0.17351    -0.66900    -0.51990
O      3.13766    -1.87692    -0.52739
H      3.98990    -2.31982    -0.49273
O      2.24885    -2.96641    -0.24240
H      1.38150    -2.56286    -0.46122
