 36
-1364.974048146833
O     -0.03483    -0.73850     1.57930
H     -0.43380    -1.62532     1.46773
O     -0.44134    -0.35638     2.89503
H      0.33944     0.17630     3.12823
O      1.40566     2.28767     1.72513
H      2.24599     2.74754     1.62804
O      1.75585     1.16158     2.53347
H      2.19524     0.59200     1.85649
O     -2.45806    -0.56530    -0.11179
H     -2.44438     0.28476     0.39220
O     -2.16357    -0.15825    -1.44570
H     -1.49416     0.52705    -1.30068
O     -0.51759     0.50924    -4.05503
H     -0.19551     0.59115    -4.95591
O      0.67702     0.10994    -3.39119
H      0.42523    -0.76264    -3.01554
O      0.21737    -2.05072    -1.90526
H     -0.38183    -2.57620    -1.34149
O      1.01075    -1.34702    -0.95622
H      0.38948    -0.68795    -0.59708
O     -2.28975     1.78488     1.07207
H     -2.78794     2.60169     0.96826
O     -2.36174     1.54919     2.48303
H     -1.69368     0.84269     2.57893
O      1.31391     1.81769    -1.43247
H      1.14574     1.20735    -2.18124
O      0.25068     1.44081    -0.55772
H      0.61067     1.65542     0.33044
O      2.88346    -0.10056     0.52601
H      2.35323    -0.64633    -0.08985
O      3.55985     0.79790    -0.35269
H      2.80251     1.24945    -0.77344
O     -1.12936    -3.12275     1.14419
H     -1.78547    -3.58062     1.67705
O     -1.72166    -3.10011    -0.15275
H     -2.12672    -2.20143    -0.13428
