 20
-758.3092392606114
O      0.49682    -1.12766     1.41729
H      0.26999    -0.17717     1.35125
O     -0.47732    -1.73248     0.55886
H     -1.31531    -1.32882     0.86738
O      3.17350    -0.21187     0.25455
H      2.41246    -0.58723     0.72369
O      2.62239     0.95575    -0.35068
H      2.25234     0.59592    -1.16861
O     -2.95698     0.50245     0.31457
H     -2.26285     1.17914     0.28671
O     -2.52105    -0.25949     1.44031
H     -3.32461    -0.33638     1.96331
O     -0.51920    -0.54080    -2.51815
H     -0.05556    -0.94161    -3.25842
O      0.52227    -0.50697    -1.54440
H      0.17600    -1.11546    -0.84220
O      0.36745     1.50739     0.93867
H      1.28293     1.56011     0.59343
O     -0.39391     1.76802    -0.25064
H     -0.13384     1.01869    -0.81310
