 32
-1213.3016170108008
O      1.72847    -0.80280     1.72290
H      1.56317     0.00209     2.24321
O      1.66144    -0.25800     0.39549
H      0.71035    -0.35016     0.18993
O      1.52599    -3.50037    -0.43685
H      1.54870    -2.78448    -1.08877
O      0.59893    -3.00409     0.52751
H      1.15754    -2.42461     1.07834
O     -2.97078     0.25985    -1.75448
H     -3.76194    -0.01311    -1.27954
O     -3.08770     1.68353    -1.81149
H     -2.54532     1.94274    -1.03655
O     -0.56804     1.50149     3.45087
H     -0.57462     2.27628     4.02235
O      0.63446     1.70828     2.70615
H      0.28124     2.00269     1.83889
O     -0.39261    -0.40246    -1.62538
H     -1.34826    -0.18340    -1.69285
O      0.20886     0.81424    -2.08554
H      1.13716     0.52444    -2.19956
O      3.07280    -1.02884    -1.69286
H      2.71067    -0.75149    -0.82752
O      2.78649     0.16552    -2.43731
H      3.31924     0.03800    -3.22841
O     -1.63755     2.07809     0.42354
H     -1.63857     1.18338     0.80857
O     -0.24052     2.20517     0.13634
H     -0.13997     1.72294    -0.72172
O     -1.13753    -0.37370     1.28495
H     -1.15254    -0.51992     2.24378
O     -1.86992    -1.47212     0.73709
H     -1.13476    -2.06829     0.49931
