 36
-1364.972759348882
O      2.89217     0.37077     1.89800
H      3.09259     0.24132     0.95249
O      2.53774    -0.96798     2.28561
H      2.01548    -0.81206     3.08482
O     -3.08590    -0.63411     1.87836
H     -3.83733    -1.22852     1.96304
O     -2.92471    -0.55888     0.46524
H     -2.19769    -1.20658     0.28625
O      2.58880    -0.04716    -0.73549
H      1.87100    -0.67645    -0.53517
O      1.86942     1.18705    -0.82142
H      1.91644     1.36558    -1.77453
O     -2.06188     1.99504    -0.96401
H     -2.45580     1.32134    -0.38738
O     -0.91861     1.29145    -1.42924
H     -0.26079     1.34479    -0.70192
O     -0.21985    -1.60960    -2.72975
H      0.37071    -0.88656    -3.01309
O     -1.49965    -1.14108    -3.14572
H     -1.63683    -0.40227    -2.53436
O     -0.64266    -1.37205     2.75870
H     -1.54883    -1.02543     2.65006
O     -0.09356    -0.57047     3.80006
H      0.01562     0.28357     3.34581
O      1.31516     0.53297    -3.44071
H      1.91141     0.57289    -4.19625
O      0.37148     1.57674    -3.74516
H     -0.20690     1.47730    -2.96670
O     -0.23102     1.84598     1.32161
H     -0.47862     2.77193     1.39046
O      0.60741     1.68898     2.45691
H      1.44058     1.36380     2.05770
O      0.28639    -1.67928     0.26056
H      0.06246    -1.56970     1.20975
O     -0.94495    -2.18862    -0.26621
H     -0.74177    -2.14207    -1.23027
