 24
-909.9842623247725
O     -1.51851    -0.89230     0.47553
H     -2.47432    -0.75882     0.40429
O     -1.41323    -2.08156     1.27466
H     -0.66975    -1.83068     1.85314
O      0.23394    -1.06420    -1.50776
H     -0.46353    -1.04633    -0.82076
O     -0.19536    -0.02477    -2.39220
H      0.24853     0.75390    -1.99275
O      2.35439    -1.02533     0.16664
H      1.67588    -0.98451    -0.53641
O      2.70538     0.35127     0.34565
H      2.43810     0.46341     1.27375
O     -2.38528     1.71350    -0.93648
H     -2.67931     2.43514    -1.50393
O     -2.75005     0.55665    -1.68548
H     -1.88495     0.31322    -2.07822
O      1.07792     0.03184     2.46606
H      0.37969     0.32080     1.85988
O      0.97015    -1.39186     2.41400
H      1.57601    -1.57788     1.67105
O      0.87209     1.88114    -0.87222
H      1.67658     1.44120    -0.53671
O      0.00866     1.69128     0.25682
H     -0.86424     1.69891    -0.17757
