 16
-606.6404541328802
O      0.30827     0.40672    -1.85778
H     -0.38475     1.01184    -1.52573
O      1.49059     1.01835    -1.34874
H      1.51090     0.69310    -0.43708
O      0.92317    -0.01535     2.49354
H      1.48192    -0.36270     3.19668
O      1.67824    -0.35136     1.32767
H      1.18912    -1.11296     0.97481
O     -1.50019     1.87131    -0.53094
H     -1.18266     2.53148     0.09397
O     -2.22371     0.97054     0.31492
H     -1.67688     0.17214     0.26465
O      0.22437    -1.94307    -0.61497
H      0.31210    -1.16178    -1.20924
O     -1.09569    -1.73575    -0.10605
H     -1.62810    -2.25493    -0.71509
