 32
-1213.3122515232346
O      0.05320     0.98683    -2.42114
H      0.89274     0.92993    -1.92162
O     -0.08856    -0.34601    -2.91339
H     -1.00819    -0.53189    -2.62628
O      0.52052    -2.52091    -1.19208
H      0.70863    -1.85962    -1.88104
O      1.75190    -2.63157    -0.47655
H      1.93981    -1.70671    -0.22265
O     -2.38364    -0.82821    -1.67050
H     -2.64849     0.00174    -1.23081
O     -1.99714    -1.60402    -0.52875
H     -1.25489    -2.11139    -0.88906
O      1.89623    -0.01958     0.29231
H      0.98461     0.13185     0.62801
O      2.09257     1.00775    -0.68598
H      2.00004     1.81499    -0.14776
O      1.39219     3.20004     0.70965
H      1.50495     4.14707     0.82443
O      0.17052     2.95308     1.38651
H     -0.45615     2.80753     0.63674
O      0.77237    -2.75815     2.72322
H      1.38115    -2.01222     2.67291
O     -0.13735    -2.44850     1.67013
H      0.17951    -2.99201     0.92744
O      0.14767     0.58110     2.62479
H      0.26135     1.52083     2.39937
O     -0.50297     0.16754     1.42311
H     -0.58207    -0.80506     1.56938
O     -1.42556     2.28851    -0.60941
H     -1.00251     1.79064    -1.34280
O     -2.36395     1.34975    -0.07962
H     -1.83804     0.92397     0.62481
