 40
-1516.6501041603183
O      2.65208     3.11136    -0.03206
H      2.36041     2.71397     0.82129
O      3.63765     2.18504    -0.45927
H      4.45809     2.63889    -0.24537
O      1.59958    -0.27240     0.23806
H      1.32881    -0.12945    -0.70438
O      3.02130    -0.35225     0.18745
H      3.21533     0.58752     0.02511
O      1.51876     2.08740     2.14227
H      1.28979     1.15621     2.33389
O      0.23319     2.70736     2.22020
H      0.07634     2.94371     1.28736
O     -0.77862    -2.57085    -1.36806
H     -1.56481    -3.15539    -1.36206
O      0.31357    -3.46659    -1.58395
H      0.68563    -3.45381    -0.68290
O      0.40949     2.93052    -1.52163
H      1.27954     3.12525    -1.12374
O     -0.41698     3.03970    -0.36493
H     -1.06100     2.31292    -0.48485
O      0.69355     0.34103    -2.24337
H      0.52277     1.30304    -2.17986
O     -0.62061    -0.16818    -2.46941
H     -0.54896    -1.09209    -2.13816
O     -3.18204    -3.55636    -0.80793
H     -3.82430    -4.21359    -1.08861
O     -3.65504    -2.37890    -1.45487
H     -3.40320    -1.72219    -0.79243
O     -2.14259     0.94102    -0.60609
H     -1.76254     0.58360    -1.43658
O     -2.18555    -0.26615     0.16272
H     -1.95258     0.04502     1.06846
O     -1.30526     0.56804     2.58357
H     -1.02212     1.50306     2.58109
O     -0.00654    -0.02425     2.77351
H     -0.11711    -0.90995     2.34992
O      0.93818    -2.68094     0.93437
H      1.33577    -1.79653     0.73326
O     -0.33103    -2.29763     1.48640
H     -0.81402    -2.04482     0.67938
