 32
-1213.310682364874
O      1.03922    -2.22803     0.42957
H      1.66689    -1.47719     0.38276
O      0.18370    -1.88887     1.52116
H     -0.69778    -1.92465     1.09105
O     -0.43266    -2.74935    -1.72424
H      0.12087    -2.60434    -0.92537
O     -0.19876    -1.53701    -2.43759
H      0.54024    -1.75940    -3.01376
O     -3.06351    -2.17675    -0.59911
H     -2.40400    -2.57325    -1.18434
O     -2.21798    -1.71541     0.44898
H     -2.48403    -0.78184     0.54672
O     -0.61353     1.58768    -1.26548
H     -1.14631     1.85423    -0.49649
O      0.01042     0.43692    -0.68476
H     -0.14457    -0.26301    -1.36623
O      1.73809     2.82908    -1.06872
H      0.84569     2.54089    -1.34622
O      1.45121     3.59098     0.10498
H      1.28161     2.89387     0.75689
O      2.91450    -0.35373     0.00427
H      3.85128    -0.49301     0.18466
O      2.91104     0.12076    -1.33736
H      2.68164     1.05893    -1.20835
O      0.89278     1.08601     1.70771
H      0.59296     0.71094     0.85223
O     -0.07172     0.54802     2.60194
H      0.02887    -0.41175     2.43536
O     -1.92756     1.78068     1.12250
H     -1.30399     1.43212     1.80059
O     -2.95539     0.79530     1.11089
H     -3.62769     1.18124     1.67961
