 16
-606.6370017198918
O     -1.83944    -0.62961     1.14505
H     -2.68842    -0.52978     1.58568
O     -1.36100     0.71666     1.15259
H     -0.51380     0.60562     1.62899
O      1.99484     0.24704     1.34498
H      1.54297     0.50481     0.51975
O      1.03893     0.63293     2.33702
H      1.45549     1.40672     2.72797
O      0.94211     0.84521    -1.06426
H      0.03281     0.55206    -1.28971
O      1.70040    -0.26658    -1.56031
H      2.56340     0.13955    -1.68240
O     -1.43454    -0.29289    -1.54040
H     -1.72066    -0.55762    -0.64748
O     -1.21621    -1.55313    -2.18409
H     -0.25215    -1.59640    -2.18240
