 40
-1516.6345023920005
O      2.56060     0.09286    -1.68860
H      2.17440     0.92011    -2.00863
O      1.93521    -0.87325    -2.55379
H      1.64076    -1.54459    -1.91027
O     -0.91257    -0.17674     1.10229
H      0.06022    -0.17090     0.92188
O     -1.10965    -1.51734     1.55676
H     -1.06426    -1.97758     0.69512
O      0.52911     2.58413     1.49388
H     -0.28130     2.52481     2.02317
O      1.56392     2.48613     2.48444
H      1.96263     1.63891     2.23190
O     -0.92562    -1.65337    -3.44348
H     -0.31442    -1.80502    -4.17403
O     -1.16355    -0.25366    -3.50351
H     -0.48740     0.08797    -2.89147
O     -2.21268     1.77005     2.37687
H     -1.91909     1.00472     1.83915
O     -3.20520     2.36928     1.54425
H     -4.02614     2.04535     1.92846
O      1.10632     2.41216    -1.20092
H      1.05552     2.46753    -0.23177
O      0.11680     1.40803    -1.44924
H     -0.73047     1.83479    -1.17722
O     -2.39189     2.14750    -1.00795
H     -2.73004     2.30830    -0.10483
O     -2.72583     0.77134    -1.17844
H     -2.52314     0.63323    -2.11384
O     -0.51553    -2.40279    -0.89286
H     -0.68356    -2.12022    -1.81703
O      0.86844    -2.76006    -0.94308
H      1.07211    -2.85199    -0.00003
O      1.13429    -2.20389     2.88878
H      0.26024    -1.93925     2.53179
O      1.52612    -3.19867     1.94037
H      1.45354    -4.00800     2.45918
O      2.60091     0.03528     1.77572
H      2.39066    -0.63093     2.44539
O      1.69213    -0.41727     0.76173
H      2.13449    -0.15985    -0.07984
