 24
-909.976237674126
O     -1.63672    -2.52954     1.16540
H     -1.16959    -1.68255     1.09037
O     -2.05347    -2.72363    -0.18701
H     -1.52042    -3.47658    -0.46037
O     -1.11402    -0.71393    -1.64312
H     -1.65977    -1.35714    -1.14777
O      0.18840    -1.25153    -1.36859
H      0.69453    -0.45990    -1.11829
O      0.10618     1.10023     1.79742
H      0.54445     1.58346     1.06870
O     -0.92781     0.37775     1.11647
H     -1.33243     1.05658     0.54060
O     -1.07032     1.91117    -1.77967
H     -1.07303     0.92238    -1.80018
O     -1.91169     2.14437    -0.65091
H     -2.79239     2.13979    -1.03859
O      3.06154    -0.15833     1.33666
H      3.73045    -0.57676     1.88809
O      1.91433    -0.96990     1.59570
H      1.26607    -0.29271     1.86990
O      1.39330     2.09372    -0.37370
H      0.72253     2.28728    -1.04698
O      1.85825     0.81640    -0.83167
H      2.39254     0.52823    -0.06316
