 40
-1516.643219987448
O      2.33616     0.70108    -0.47748
H      1.69648     1.29194    -0.92561
O      2.25045    -0.47787    -1.27454
H      2.09473    -1.20189    -0.62792
O     -1.22762    -2.98286     2.51062
H     -0.32898    -3.33100     2.38426
O     -1.14337    -2.39232     3.80393
H     -1.14494    -1.44943     3.58557
O     -1.24858     0.63844     0.04522
H     -1.75013    -0.20789     0.06561
O     -2.18667     1.59071     0.53349
H     -1.83111     1.73506     1.42460
O     -0.85238     1.78097     3.18588
H      0.07230     1.50523     3.06253
O     -1.42232     0.58897     3.73021
H     -1.61231     0.85160     4.63727
O     -1.89865    -1.93074     0.10495
H     -1.73148    -2.41681     0.93507
O     -0.98748    -2.54805    -0.80376
H     -0.91796    -1.86434    -1.50279
O     -0.65342    -0.53490    -2.52421
H     -0.73205     0.31203    -2.04836
O      0.53572    -0.31536    -3.28681
H      1.22908    -0.36026    -2.58865
O     -0.07322     3.14515    -0.55548
H     -0.97787     2.82332    -0.48225
O      0.40305     2.22218    -1.54857
H      0.52984     2.77385    -2.34326
O      1.47021     0.81060     2.01847
H      1.94777     0.79415     1.15923
O      0.53669    -0.24292     1.79660
H     -0.06149     0.13168     1.10421
O      1.53089    -2.64205     0.14606
H      0.62081    -2.82031    -0.16018
O      1.39275    -2.71752     1.56565
H      1.19328    -1.78191     1.77390
O      1.33711     2.84106    -4.02736
H      1.33708     3.56274    -4.66115
O      0.12758     2.16104    -4.38918
H      0.37300     1.24752    -4.16544
