 28
-1061.6399040653587
O     -1.86677    -1.09764    -2.29600
H     -2.08777    -0.31387    -1.76042
O     -0.75342    -1.57725    -1.53165
H     -0.30295    -2.20375    -2.13338
O      0.60804     1.93676     3.33255
H      0.65450     2.25698     2.41596
O      1.49003     0.81416     3.22587
H      1.83091     0.75793     4.12306
O     -0.10602    -1.47351     1.31688
H     -0.73989    -1.44962     0.58549
O     -0.61647    -0.39356     2.10785
H      1.30956    -3.73990    -3.31973
O      0.66896     2.46023     0.66913
H      0.74299     1.65992     0.09266
O     -0.53439     3.06771     0.20261
H     -0.19453     3.79152    -0.33256
O     -2.81534     0.71967     0.53625
H     -2.11400     0.52631     1.17570
O     -2.06026     1.03117    -0.63349
H     -1.57539     1.83321    -0.35786
O      1.75103    -1.95661    -2.94672
H      2.03164    -1.65248    -2.07222
O      1.09013    -3.17074    -2.57799
H      0.18882    -0.04668     2.53974
O      1.81550    -0.63351    -0.38659
H      1.27833    -1.02378     0.33039
O      0.89875     0.34435    -0.90212
H      0.18879    -0.25351    -1.23448
