 16
-606.6414232854198
O     -2.08656    -1.16264     1.24539
H     -2.99381    -1.13803     1.56570
O     -1.72845     0.22419     1.31790
H     -1.67619     0.46607     0.36779
O      1.47979     0.67229     1.47102
H      2.23406     0.62363     2.06559
O      1.03763    -0.69481     1.45940
H      0.13054    -0.59590     1.78927
O      1.80953    -0.44194    -2.18231
H      1.43062     0.44856    -2.21144
O      0.77093    -1.14328    -1.48519
H      1.08953    -1.12306    -0.56855
O     -1.11159     0.72997    -1.29976
H     -0.61785    -0.09950    -1.48174
O     -0.00624     1.63705    -1.15680
H      0.36279     1.39708    -0.29445
