 36
-1364.9703239727708
O      0.49523     0.55772     0.55291
H      0.68853     0.84619    -0.35849
O      1.41459     1.39803     1.27223
H      1.56162     0.81023     2.03310
O     -0.05657    -2.20965    -2.50875
H      0.17892    -1.33138    -2.87157
O     -1.19962    -1.87948    -1.71472
H     -0.91720    -2.14992    -0.82359
O     -0.64960    -0.17593     2.96666
H     -0.74048     0.78790     3.04309
O      0.75983    -0.35113     3.16503
H      0.90097    -1.17802     2.66995
O      2.82856    -1.94647    -1.29260
H      3.53080    -2.40037    -1.76908
O      1.93965    -3.01697    -0.98664
H      1.20790    -2.82753    -1.62535
O     -0.62620     2.78169     2.37806
H      0.21026     2.53955     1.94452
O     -1.30525     3.48229     1.32815
H     -2.15006     3.01867     1.32601
O     -2.12362     0.36461     0.07449
H     -1.18863     0.47224     0.37754
O     -2.89190     0.83843     1.17722
H     -3.24085     0.01784     1.54434
O      0.87487     0.24818    -3.05705
H      0.37642     1.07815    -3.02681
O      1.81266     0.46091    -1.98417
H      2.08528    -0.44546    -1.75960
O     -1.37439     1.97000    -2.25217
H     -1.69505     1.16042    -1.81777
O     -0.32497     2.39866    -1.37880
H     -0.78970     2.85037    -0.65297
O      0.77871    -2.45568     1.43252
H      1.28938    -2.73225     0.64737
O     -0.55196    -2.40299     0.90191
H     -0.90238    -1.64246     1.38999
