 40
-1516.6396146606223
O      4.46182    -1.71410    -0.35391
H      3.66574    -2.18948    -0.65420
O      4.53336    -0.68975    -1.35516
H      5.47664    -0.66472    -1.53371
O      0.28066     1.31347     1.81433
H     -0.58070     1.73694     1.60344
O      1.21978     2.27546     1.33708
H      1.82059     1.71160     0.81694
O     -2.49709     2.64630    -0.09653
H     -1.66755     3.09091    -0.35007
O     -2.17661     2.21994     1.23638
H     -2.80261     1.47258     1.35060
O     -2.65582     0.27023    -1.45696
H     -2.59942     1.13996    -1.01588
O     -1.44191    -0.32708    -1.02255
H     -1.69787    -0.79690    -0.20592
O     -0.62425    -1.22040     2.58228
H     -0.21031    -0.38895     2.28619
O     -0.85774    -1.89650     1.34738
H      0.03733    -2.14804     1.03799
O      1.52769     0.31230    -1.15088
H      0.87433     1.01431    -1.32283
O      2.64583     1.07879    -0.66754
H      3.36164     0.44414    -0.88143
O      0.45466     2.68952    -1.67857
H      1.14524     3.18013    -2.13502
O      0.02164     3.59807    -0.67100
H      0.51085     3.25842     0.11065
O      2.01860    -2.76235    -0.93109
H      1.19607    -2.75339    -1.46871
O      1.59021    -1.98112     0.18502
H      1.56332    -1.09028    -0.22604
O     -1.22642    -3.35345    -1.40688
H     -1.59478    -3.84628    -2.14434
O     -0.37792    -2.44512    -2.10749
H     -0.77599    -1.58562    -1.83097
O     -3.24129    -0.05582     2.92550
H     -2.51237    -0.69093     2.84841
O     -3.63020     0.04360     1.55668
H     -4.56643    -0.18746     1.57884
