 28
-1061.6465132799665
O      0.84584     1.43641    -1.69571
H      1.28124     0.59091    -1.90442
O     -0.31104     1.01512    -0.95586
H     -0.05189     1.25719    -0.04658
O      1.71304    -0.98659     1.02515
H      1.90869    -1.40459     0.16819
O      0.35565    -1.38974     1.25026
H     -0.05265    -0.55281     1.55471
O     -0.90985     2.13611     2.45879
H      0.00521     2.35856     2.22650
O     -0.98127     0.84267     1.84308
H     -0.71966    -2.01365     0.06323
O      2.22455    -0.79510    -2.31155
H      2.52497    -1.18013    -3.14144
O      1.86407    -1.94219    -1.54889
H      0.89382    -1.97388    -1.71837
O     -3.05974    -0.11551    -0.04035
H     -2.69470    -0.97511    -0.32793
O     -3.49135    -0.44342     1.28403
H     -4.39131    -0.10707     1.26168
O     -0.73672    -1.46515    -1.74049
H     -0.73648    -0.52429    -1.44627
O     -1.37341    -2.13263    -0.65407
H     -1.88419     0.81379     1.48098
O      2.56165     2.22614     0.23212
H      2.04236     2.23046    -0.58793
O      1.59272     1.66203     1.11799
H      1.86222     0.72505     1.15202
