 20
-758.3021397368431
O     -0.42681    -0.68967     1.53374
H     -1.37124    -0.49128     1.50827
O     -0.26594    -1.30203     0.25358
H      0.17592    -0.59798    -0.27667
O      2.41991    -2.30680    -0.52839
H      1.65800    -2.23020     0.06302
O      3.15850    -1.15477    -0.11914
H      4.06403    -1.47423    -0.16846
O     -1.05910     2.19638     0.10801
H     -1.73879     1.49993     0.09092
O     -0.76366     2.30000     1.49927
H     -0.14470     1.56486     1.62061
O      1.18866     0.26524    -1.24726
H      2.05404    -0.12675    -1.02015
O      1.38986     1.62802    -0.84213
H      0.47307     1.90022    -0.63444
O     -2.68304    -0.60704    -1.06537
H     -2.01190    -1.23733    -0.76241
O     -2.83847     0.14657     0.14332
H     -3.79108     0.13392     0.27942
