 40
-1516.6385503641447
O      1.94625     2.44046     1.87910
H      2.19597     2.59412     0.94755
O      1.03335     1.37327     1.72916
H      0.28140     1.75748     1.22114
O      2.76854    -1.53477     1.76123
H      3.70628    -1.71909     1.86366
O      2.81125    -0.34227     0.97534
H      2.25415     0.26231     1.51846
O     -0.06681     1.28612    -3.74200
H      0.00760     1.05645    -4.67331
O      0.96471     2.25605    -3.58771
H      1.53587     1.81017    -2.93541
O     -1.04039     2.27900     0.28725
H     -1.71035     1.60009     0.01955
O     -0.60860     2.77238    -0.97718
H     -1.11827     3.58514    -1.06261
O     -2.37019    -3.15355     0.06013
H     -2.68469    -2.22575     0.16423
O     -2.52671    -3.37047    -1.33508
H     -3.26633    -3.98303    -1.33785
O     -0.77710    -0.68301    -2.00903
H     -0.43103     0.06846    -2.52488
O      0.31595    -0.93874    -1.12688
H      0.15404    -1.86159    -0.86839
O     -0.80354     0.20556     3.61265
H     -0.13365     0.87608     3.42120
O     -0.95624    -0.35070     2.31192
H     -0.44485    -1.18103     2.33875
O     -2.68891     0.32294    -0.47234
H     -2.12897    -0.19705    -1.09073
O     -2.92928    -0.59806     0.59245
H     -2.21962    -0.36989     1.23075
O     -0.11238    -3.02958     1.61415
H     -0.91310    -3.27347     1.11813
O      0.88760    -3.19093     0.60620
H      1.59143    -2.63411     0.97784
O      2.34858     1.40358    -1.41202
H      2.35913     0.78833    -0.65709
O      2.07702     2.65993    -0.79190
H      1.11141     2.72847    -0.92139
