 40
-1516.641134979163
O      1.67912     2.26022     2.63458
H      1.40604     1.41872     2.20745
O      2.73279     2.69180     1.78283
H      3.52801     2.40524     2.24380
O      1.06615    -0.73240     0.37921
H      0.31019    -0.45462    -0.19422
O      0.83676    -0.05818     1.61627
H     -0.15056    -0.12100     1.74933
O     -0.53075     3.21867    -1.79350
H     -0.32303     4.08109    -2.16490
O      0.25877     2.32468    -2.58073
H      1.04730     2.24265    -1.99130
O     -2.21220    -0.30212    -1.60977
H     -2.54343    -0.18321    -0.69938
O     -0.82815    -0.04180    -1.35911
H     -0.57119     0.50539    -2.12133
O     -0.71231     3.54285     1.49941
H      0.05603     3.43253     2.07577
O     -0.58637     2.35590     0.72821
H     -0.51659     2.68810    -0.19548
O      2.16992     2.15263    -0.78393
H      2.34183     2.38342     0.15453
O      2.85980     0.91147    -0.93541
H      2.30403     0.30174    -0.41557
O     -1.74789    -0.33931     1.87866
H     -1.97786    -1.23853     1.55594
O     -2.43865     0.50475     0.95487
H     -1.82900     1.27599     0.93138
O     -2.71897    -3.26822    -0.08146
H     -2.10933    -3.15897    -0.83361
O     -1.91428    -2.83907     1.01550
H     -1.12665    -3.40627     0.98610
O      0.94165    -3.31518     1.07271
H      1.06600    -2.38641     0.78511
O      1.17503    -4.03927    -0.13296
H      2.05147    -4.40820     0.01052
O      0.35983    -2.43907    -2.15574
H      0.64466    -3.08391    -1.48618
O     -1.04325    -2.72807    -2.21133
H     -1.40173    -1.85408    -2.40869
