 32
-1213.313497728747
O      2.72398     0.18130    -0.55200
H      3.00182    -0.74278    -0.38675
O      3.07681     0.82963     0.67063
H      2.39198     0.49092     1.27536
O      0.20130    -1.33420    -0.93256
H      0.13145    -1.26297     0.04513
O     -0.72723    -2.38385    -1.18551
H     -1.57082    -1.94477    -0.93321
O     -2.54703     1.62692    -1.35685
H     -1.61557     1.65268    -1.66843
O     -2.74271     2.93854    -0.84037
H     -3.41685     3.26620    -1.43961
O      0.52208    -1.37611     1.67653
H      1.24700    -2.02110     1.70283
O      1.11635    -0.21698     2.27646
H      0.38648     0.42300     2.15430
O      0.05371     1.11054    -1.96659
H      0.16505     0.16685    -1.71365
O      0.68593     1.79535    -0.86937
H      1.55931     1.33753    -0.81908
O      2.16957    -3.14478     0.08285
H      1.60118    -2.75866    -0.60225
O      3.36008    -2.37778    -0.05793
H      3.96043    -2.98712    -0.49919
O     -1.27569     2.53432     1.89879
H     -1.98834     2.77304     1.29498
O     -0.82256     1.33274     1.28894
H     -0.32654     1.63915     0.48920
O     -3.16822    -0.67643     0.83528
H     -2.47724    -0.04633     1.09123
O     -2.85302    -0.91310    -0.52969
H     -2.88425    -0.01534    -0.91234
