 32
-1213.3150373039214
O      2.72800     0.55716     1.25760
H      3.44829     0.63402     1.89116
O      2.57144     1.90251     0.81890
H      1.61961     2.02464     1.01094
O     -1.86292    -2.03267    -0.35760
H     -1.40610    -2.04144     0.49584
O     -0.80997    -1.65025    -1.23577
H     -0.99085    -0.70088    -1.43054
O     -1.06522     0.91938    -1.90556
H     -0.18701     1.35025    -2.00853
O     -1.80132     1.93006    -1.20838
H     -2.56928     1.39443    -0.89817
O     -0.08308     1.95343     0.82094
H     -0.74054     2.03591     0.08753
O     -0.67673     0.95472     1.65056
H      0.02137     0.28360     1.71112
O      1.41684     1.80512    -1.80455
H      2.15139     1.87321    -1.17507
O      1.84978     0.79789    -2.71806
H      1.88244     0.01404    -2.14338
O      1.57392    -2.19552    -0.24798
H      0.71125    -2.13204    -0.71435
O      2.26747    -1.07711    -0.79462
H      2.44270    -0.53688    -0.00125
O     -0.43121    -2.24581     2.22480
H     -0.32260    -2.92627     2.89619
O      0.83350    -1.58640     2.24318
H      1.23416    -1.94059     1.41966
O     -3.22590     0.25321     1.26810
H     -2.30643     0.57287     1.32381
O     -3.40815     0.13648    -0.14292
H     -3.06177    -0.76067    -0.30335
