 32
-1213.3070775157892
O      4.03421     0.75875    -0.74021
H      3.82851    -0.18886    -0.80823
O      4.39032     0.90408     0.63402
H      3.53619     1.01725     1.07015
O     -0.92126    -2.04724    -0.08511
H     -0.12543    -2.01686    -0.65867
O     -1.97476    -1.90780    -1.04085
H     -2.72992    -1.72040    -0.45610
O     -1.27260     0.62453    -1.21022
H     -1.55295    -0.30918    -1.34724
O     -2.39768     1.39400    -1.63259
H     -2.90701     1.34951    -0.81072
O      0.76814     0.26347     0.83384
H      0.88294     1.03888     0.23621
O      1.40698     0.71213     2.04124
H      0.60527     0.78285     2.58229
O      1.15402     1.06272    -2.06735
H      0.18549     1.07761    -1.87818
O      1.65608     1.91349    -1.02807
H      2.60548     1.65297    -1.00868
O      2.28354    -1.48411    -0.46507
H      1.77336    -0.97203     0.19103
O      1.31456    -1.58158    -1.52154
H      1.34421    -0.68013    -1.89542
O     -1.69679    -0.51908     2.24036
H     -0.96928    -0.75463     1.63595
O     -1.03622     0.26505     3.22730
H     -1.04208    -0.33359     3.98109
O     -4.11674    -0.81376     0.20484
H     -4.80688    -0.54212    -0.40778
O     -3.60735     0.45472     0.62003
H     -2.93416     0.16789     1.26113
