 32
-1213.3072564113816
O      3.24748     0.45885    -0.56951
H      2.78290     0.94585    -1.27485
O      3.44429     1.49573     0.39539
H      2.56251     1.54031     0.80121
O     -1.61963    -1.39469     0.25450
H     -1.26264    -2.08043     0.86716
O     -3.02838    -1.64528     0.33670
H     -3.31503    -0.79680     0.70379
O     -1.00445    -0.52446    -2.14710
H     -1.33888    -1.00816    -1.36252
O     -0.77518     0.76543    -1.57430
H     -1.65626     1.03529    -1.23563
O      0.80569     1.76017     1.11472
H      0.61334     2.22994     0.28240
O     -0.37971     0.99857     1.31260
H     -0.09479     0.10987     1.01879
O      1.13368     3.07996    -1.23062
H      1.96820     3.55308    -1.16887
O      1.52416     1.94478    -2.01102
H      0.69171     1.42864    -1.95018
O      1.39090    -1.24439     0.32231
H      2.20470    -0.71136     0.16488
O      1.28528    -1.97705    -0.90659
H      0.75356    -1.37567    -1.44821
O     -0.81879    -3.27955     1.92783
H     -0.97039    -4.22696     1.84036
O      0.53752    -3.19486     2.36728
H      0.94274    -2.77502     1.59419
O     -2.99994     1.20118     0.91447
H     -2.03813     1.15392     1.09883
O     -2.99645     1.71043    -0.41665
H     -3.20775     2.64017    -0.28975
