 40
-1516.6383878954896
O      1.76909     0.87935    -0.30854
H      0.90706     1.21796    -0.61557
O      1.84858    -0.39176    -0.94385
H      1.77867    -1.00723    -0.19801
O     -0.55646    -2.17659     2.37642
H     -0.30197    -3.10874     2.29685
O     -1.55627    -2.18876     3.40318
H     -1.39280    -1.31098     3.78206
O     -1.03991     1.51978     0.46459
H     -1.23329     0.60403     0.17371
O     -2.26364     1.88323     1.10104
H     -2.06441     1.63743     2.01772
O     -0.82310     0.38567     4.02111
H     -0.16056     0.63014     3.33407
O     -1.89800     1.26768     3.72400
H     -1.82011     1.92960     4.41706
O     -1.36600    -1.09484     0.06047
H     -1.14500    -1.50750     0.92410
O     -0.76408    -2.00977    -0.87125
H     -0.88518    -1.52230    -1.72082
O     -0.82114    -0.39267    -2.95362
H     -0.89603     0.55348    -2.71650
O      0.57342    -0.46073    -3.28292
H      0.99679    -0.40998    -2.39965
O     -1.37248     3.01831    -1.93071
H     -1.50612     2.88635    -0.98240
O     -0.34041     2.05193    -2.14676
H      0.28903     2.50119    -2.74784
O      1.15396     0.63914     2.27650
H      1.42748     0.81434     1.34802
O      1.94780    -0.49747     2.61564
H      1.25420    -1.16062     2.75021
O      0.73937    -3.75390     0.53112
H      0.19194    -3.22682    -0.08327
O      1.87049    -2.89475     0.64802
H      2.57187    -3.42530     0.25880
O      1.60574     2.54418    -3.86293
H      1.95251     3.24100    -4.42680
O      0.85406     1.76777    -4.80699
H      0.85021     0.90527    -4.34848
