 24
-909.9738133963036
O     -0.12362    -1.04056    -1.68324
H      0.62991    -0.68587    -2.16944
O     -1.12488    -0.03198    -1.85543
H     -0.61905     0.80240    -1.73215
O     -1.32044    -2.72724     1.65433
H     -1.92950    -3.14842     2.26737
O     -1.18216    -1.43862     2.25501
H     -1.70179    -0.87618     1.63019
O      2.90208     1.04100    -1.01658
H      2.71630     0.53925    -0.20879
O      2.80712    -0.00475    -1.98328
H      3.70298    -0.03263    -2.33563
O      0.36903     2.09893    -1.25734
H      1.33075     1.95012    -1.23154
O      0.01296     2.04978     0.12923
H      0.34840     1.16950     0.39601
O      1.46338    -0.97065     1.91797
H      0.58105    -1.15247     2.29554
O      1.06320    -0.29321     0.72874
H      0.65234    -0.98587     0.18100
O     -2.80258     1.31218     0.69722
H     -1.92035     1.69629     0.59184
O     -2.56710    -0.06758     0.44799
H     -2.24683    -0.08707    -0.47705
