 24
-909.9749591659789
O     -0.77849    -1.53354     0.64889
H     -1.36884    -1.58103    -0.11490
O     -1.30230    -0.37726     1.31520
H     -1.11712    -0.62463     2.23282
O      0.17992     0.83295    -2.68504
H     -0.52552     0.24680    -2.99814
O     -0.58774     1.66871    -1.79484
H      0.09878     1.90615    -1.13414
O      1.52555    -1.40928    -1.09987
H      1.07439    -0.67499    -1.53755
O      2.21479    -0.72784    -0.05046
H      1.82983    -1.12538     0.74464
O     -2.07040    -0.84112    -2.76316
H     -2.85251    -0.66118    -3.29595
O     -2.52618    -0.49299    -1.44992
H     -2.08498     0.36399    -1.31279
O      1.48339    -0.42255     2.77758
H      1.22992     0.43797     2.38500
O      0.33099    -0.69931     3.58114
H      0.66024    -0.52424     4.46996
O      1.27096     1.73298     0.13151
H      1.71630     0.85643     0.07545
O      0.47997     1.59350     1.30905
H     -0.23612     0.99405     1.02457
