 28
-1061.6483734927833
O      2.39593    -2.07429    -0.88856
H      1.74637    -2.78623    -0.78178
O      2.22303    -1.69589    -2.25659
H      1.92243    -0.77933    -2.17065
O      0.93169     1.81823    -0.89847
H      1.32357     1.21687    -0.22260
O      0.66731     0.91954    -1.97581
H     -0.08629     0.40110    -1.62774
O     -1.28963    -0.61329    -1.00723
H     -0.92492    -1.40851    -0.57887
O     -1.89316     0.08089     0.09175
H     -0.71990    -3.88004    -0.32561
O     -2.27494     2.52988    -0.87954
H     -2.90284     3.25575    -0.84042
O     -1.24954     3.00329    -0.01447
H     -0.45495     2.65071    -0.47933
O     -0.38740     1.72443     2.26829
H     -0.68427     2.40675     1.64327
O     -1.62723     1.15518     2.68953
H     -1.88106     0.65233     1.89919
O      0.48193    -3.16700     0.93015
H      0.52224    -2.23474     1.21190
O     -0.29488    -3.01903    -0.25654
H     -2.09929     0.92858    -0.34420
O      0.73306    -0.52280     1.41579
H      0.36023     0.31341     1.78790
O      1.88954    -0.02476     0.71887
H      2.15627    -0.81203     0.19721
