 36
-1364.9795733305893
O      0.51232     1.91586     2.28660
H      1.09862     2.40676     1.68145
O      1.28009     0.74910     2.56278
H      1.06987     0.18261     1.79304
O      0.72702    -0.71970     0.39393
H      1.29474    -0.79186    -0.40865
O      0.32524    -2.06176     0.67716
H     -0.57218    -2.02445     0.27331
O     -1.04224    -0.50175     3.41682
H     -0.26719    -0.08196     3.82119
O     -0.64320    -1.86702     3.27207
H     -0.22782    -1.88605     2.39051
O      0.03242    -2.69173    -2.55931
H      0.77328    -2.20243    -2.95720
O      0.66328    -3.77440    -1.87839
H      0.79264    -3.40130    -0.99593
O     -2.43694     0.42893     1.33924
H     -1.97461     0.13239     2.15630
O     -1.84535     1.69590     1.04215
H     -1.02871     1.70938     1.58877
O     -0.35536     1.00612    -1.86507
H     -1.08652     0.35549    -1.72816
O     -0.87794     2.24451    -1.40263
H     -1.30586     1.99918    -0.54933
O      1.64612    -0.36630    -2.89730
H      0.86773     0.18021    -2.67669
O      2.39345    -0.24480    -1.68658
H      2.45122     0.71748    -1.57128
O      1.73539     2.70653    -0.98253
H      0.77159     2.75768    -1.16321
O      1.84070     3.24424     0.32744
H      2.18938     4.12613     0.16849
O     -1.93656    -1.10511    -1.67587
H     -1.33816    -1.79143    -2.03843
O     -2.08268    -1.58631    -0.34180
H     -2.33446    -0.78061     0.16108
