 24
-909.968548360842
O     -1.57277    -1.68497    -0.58982
H     -1.21355    -0.84342    -0.94196
O     -2.12473    -1.19044     0.64382
H     -2.55293    -1.97620     0.99860
O      1.64431    -2.03226     0.27023
H      1.27191    -2.22858    -0.60287
O      2.02462    -0.65447     0.12849
H      1.28526    -0.21437     0.59885
O      1.58318    -1.48375    -2.88157
H      2.26372    -1.74286    -3.50999
O      2.00830    -0.16038    -2.52945
H      2.22174    -0.29861    -1.58560
O     -1.38212     1.71256    -1.51527
H     -1.40295     2.10018    -0.62891
O     -0.46513     0.63419    -1.27729
H      0.20905     0.75704    -1.96415
O     -0.00957     0.02894     1.69466
H     -0.85571    -0.31380     1.32111
O      0.16432    -0.78462     2.85230
H      0.71934    -1.49034     2.49034
O     -1.69593     2.67046     1.18674
H     -2.08438     3.52910     1.37491
O     -0.34242     2.88335     1.61038
H     -0.18349     2.04021     2.05604
