 40
-1516.641661927376
O      0.19305     3.37832     1.75036
H      0.10429     4.25980     1.36701
O      1.60135     3.18682     1.83554
H      1.81258     2.75631     0.98068
O      2.04308    -0.95302    -0.64209
H      2.21194    -1.61069     0.05757
O      0.83185    -1.45646    -1.21009
H      0.63237    -0.80873    -1.90697
O     -1.81409     0.58056    -3.19524
H     -1.73887     1.41966    -2.69495
O     -0.45556     0.15869    -3.25199
H     -0.22962     0.31907    -4.17390
O     -1.56036     1.59188     0.83494
H     -0.88336     2.16529     1.24685
O     -0.77191     0.43445     0.54208
H     -1.39035    -0.13248     0.00816
O     -0.68233     3.66689    -1.37046
H      0.07031     3.04361    -1.39186
O     -1.79328     2.78273    -1.56890
H     -1.89440     2.41562    -0.67144
O      0.98047     1.60435    -1.10093
H      0.38537     1.12724    -0.48533
O      2.18410     1.66906    -0.33378
H      2.41597     0.71782    -0.31712
O      2.03197     0.32687     2.24329
H      1.87982     1.20791     2.61754
O      0.82329    -0.37520     2.54714
H      0.23130    -0.13509     1.80959
O     -0.31692    -3.87328     0.00288
H     -0.29140    -3.05749    -0.51838
O     -1.15648    -3.47297     1.09711
H     -0.47314    -3.37715     1.79212
O      1.19415    -3.00521     2.26394
H      1.18220    -2.03682     2.41955
O      2.00126    -3.11510     1.08338
H      1.41581    -3.68722     0.55859
O     -2.17247    -1.16081    -0.99263
H     -2.59504    -1.00463    -1.85276
O     -3.11687    -1.98377    -0.29108
H     -2.50334    -2.58059     0.16695
