 24
-909.9803574911518
O      0.71182     0.36061     2.57715
H      1.39254     0.06068     1.95151
O     -0.40667     0.61661     1.72824
H     -0.62247    -0.27393     1.37936
O      0.67257    -1.30818    -1.45697
H      1.52418    -0.94287    -1.15401
O      0.13662    -0.17912    -2.15614
H     -0.82627    -0.33573    -2.05147
O      2.81681    -0.33051     0.98601
H      3.71047    -0.04972     1.21051
O      2.65719     0.19851    -0.32478
H      2.16002     1.03015    -0.14084
O     -2.63479     0.73799    -0.48334
H     -1.87108     1.30723    -0.65362
O     -2.41519    -0.33842    -1.39611
H     -2.47271    -1.09727    -0.78677
O     -2.03600    -2.30514     0.39154
H     -2.46341    -2.30856     1.25323
O     -0.72128    -1.88055     0.75888
H     -0.28283    -1.80128    -0.11581
O      0.01070     2.21729    -0.90506
H      0.26071     1.43187    -1.42428
O      0.96730     2.19263     0.16077
H      0.42702     1.84365     0.90856
