 32
-1213.3104643312772
O      3.04663    -0.04825     1.00911
H      3.57686     0.11061     1.79664
O      2.80439     1.26979     0.51968
H      1.84806     1.35940     0.72592
O     -1.42555    -1.70941    -0.28387
H     -0.52824    -1.55389     0.07406
O     -1.11649    -1.87225    -1.67156
H     -1.04550    -0.93890    -1.95264
O     -0.73023     0.69452    -2.31841
H      0.22868     0.91213    -2.31226
O     -1.26490     1.71766    -1.47523
H     -2.11674     1.31597    -1.18444
O      0.21073     1.04995     0.57020
H     -0.33261     1.38165    -0.18976
O     -0.54480     1.42681     1.72551
H     -0.40281     0.61795     2.25948
O      1.94313     1.05454    -2.16496
H      2.46433     1.00953    -1.34572
O      2.21617     2.38100    -2.61207
H      2.56722     2.19705    -3.48752
O      1.12739    -1.77110     0.39464
H      1.81126    -1.10085     0.60544
O      1.79516    -2.56747    -0.58287
H      1.06496    -2.71470    -1.20106
O     -1.67269    -1.44961     3.04597
H     -2.20737    -0.91436     2.43957
O     -0.35860    -0.99073     2.75766
H      0.03348    -1.71306     2.24400
O     -3.07436     0.58229     1.19506
H     -2.24545     1.09244     1.27438
O     -3.13496     0.31471    -0.21174
H     -2.68276    -0.55684    -0.27455
