 24
-909.9732467955961
O     -1.54937     0.31891     1.27948
H     -2.23427     0.53771     0.63206
O     -1.25187    -1.02793     0.89007
H     -0.58787    -1.27144     1.56728
O      0.40162    -1.47094    -1.22344
H     -0.23738    -1.29649    -0.50221
O      0.22024    -0.35223    -2.09860
H     -0.75010    -0.26243    -2.14256
O      2.61607    -0.55978     0.34428
H      2.13237    -0.81808    -0.46009
O      2.26598     0.82050     0.45839
H      3.12849     1.24969     0.43227
O     -2.40372     0.21445    -2.07355
H     -2.95952     0.45166    -2.82196
O     -2.60370     1.31378    -1.18776
H     -1.74515     1.78577    -1.27818
O      0.98544    -1.48604     2.30464
H      1.69680    -1.18754     1.70202
O      1.19467    -2.89752     2.33363
H      1.35499    -3.02971     3.27189
O     -0.15444     2.30393    -1.14695
H      0.43200     1.52810    -1.17675
O     -0.11802     2.73579     0.20565
H     -0.33350     1.92384     0.69197
