 32
-1213.311321912942
O     -1.32367    -1.82933     0.72274
H     -0.68693    -1.72854     1.46027
O     -1.07296    -3.18032     0.36058
H     -1.77429    -3.32503    -0.27898
O      2.69763    -1.29920    -0.63144
H      3.43524    -1.79968    -0.99289
O      1.87030    -2.31366    -0.07793
H      1.11297    -2.29691    -0.70404
O     -0.81855     0.50459    -1.48249
H     -0.00986     0.92244    -1.11397
O     -1.74605     1.57985    -1.56816
H     -2.29844     1.35039    -0.80121
O      1.59161     1.14472    -0.61461
H      2.07877     0.30169    -0.53306
O      2.09761     1.92459     0.46577
H      1.78025     1.38612     1.21779
O      0.35867     4.10396     0.41069
H      0.99472     3.36817     0.39507
O     -0.89852     3.41480     0.43874
H     -1.10836     3.28045    -0.49947
O     -0.83109    -2.50952    -2.93001
H     -0.23095    -2.43732    -3.67538
O     -0.02925    -1.95814    -1.90082
H     -0.47381    -1.09107    -1.73559
O      0.95239     0.12082     2.03901
H      0.02160     0.43918     2.01621
O      0.78302    -1.27887     2.23727
H      1.40919    -1.64516     1.59202
O     -1.47218     1.18393     1.74995
H     -1.28269     2.05391     1.33273
O     -2.42431     0.64760     0.82984
H     -2.10089    -0.26726     0.73938
