 36
-1364.9697602017595
O      1.04097     2.28174     0.00814
H      1.23124     2.19514    -0.94358
O      0.80565     0.89892     0.33181
H      0.08795     0.98982     0.99277
O     -0.84525    -1.28178    -1.14684
H      0.11792    -1.45595    -1.24877
O     -0.93262    -0.01379    -1.79986
H     -1.58847     0.47830    -1.25748
O     -0.99845     0.76889     3.39744
H     -0.76684    -0.12366     3.10403
O     -1.10567     1.37483     2.10434
H     -1.16950     2.33317     2.29604
O     -0.73521    -1.52959     1.53944
H     -0.93018    -1.48661     0.57674
O      0.65122    -1.87927     1.56057
H      1.04159    -1.25011     0.92516
O     -1.15537     3.72863     0.44620
H     -0.28864     3.28297     0.32043
O     -1.11864     4.00545     1.84720
H     -1.73756     4.73782     1.91283
O     -2.70827     1.42508    -0.44988
H     -2.51646     2.32863    -0.15250
O     -3.56031     0.91301     0.57234
H     -2.91170     0.57460     1.20917
O      1.78030    -1.37543    -1.23847
H      2.12270    -0.59468    -1.72303
O      2.26433    -2.46020    -2.03322
H      2.34786    -3.13761    -1.34298
O      1.06657     1.49116    -2.59366
H      0.37188     0.82638    -2.37021
O      2.20167     0.67239    -2.84624
H      2.17888     0.55586    -3.80090
O      2.31818    -4.31407    -0.00771
H      2.53605    -5.24869    -0.06234
O      0.95161    -4.37326     0.42543
H      0.89782    -3.54743     0.93612
