 16
-606.6379339761341
O     -1.80159     0.43047    -0.53987
H     -1.35380    -0.29280    -0.06670
O     -1.91986     1.37901     0.52399
H     -2.74593     1.81569     0.29903
O      1.30027    -0.20667    -1.34573
H      1.13507     0.68446    -0.97371
O      2.02479    -0.79392    -0.25323
H      2.80878    -1.12048    -0.70230
O      1.25942     1.83614     1.34434
H      1.58346     0.92777     1.27976
O      0.64778     2.00378     0.05959
H     -0.30111     1.89563     0.27022
O     -1.11307    -2.96921     0.10889
H     -1.87109    -2.69919    -0.41654
O     -0.53111    -1.70855     0.45047
H      0.31362    -1.73539    -0.02852
