 32
-1213.310488806311
O      0.39568    -0.64765     3.41381
H     -0.57266    -0.66658     3.35964
O      0.82617    -1.50553     2.35801
H      0.27800    -1.22989     1.59136
O     -0.50704    -1.00134     0.11897
H      0.07311    -1.18888    -0.66190
O     -1.58564    -0.23614    -0.42810
H     -2.17609    -0.20314     0.34903
O     -1.40118    -0.61022    -3.07747
H     -1.62616    -0.41245    -2.14368
O     -2.32085    -1.66337    -3.37097
H     -2.78751    -1.28735    -4.12188
O      1.04466     1.45695     1.92094
H      0.86394     0.77076     2.59891
O     -0.22487     1.54451     1.25905
H      0.05091     1.70343     0.32851
O      0.08125     2.01154    -2.32705
H      0.57923     1.23114    -2.62118
O      0.72137     2.24325    -1.07493
H      1.24601     3.03777    -1.22428
O      1.60726    -0.37617    -2.20039
H      2.03035    -0.18817    -1.33018
O      0.99966    -1.65214    -1.95677
H      0.34107    -1.67082    -2.66736
O      2.63429     0.26841     0.15329
H      2.15926     0.80122     0.82787
O      3.32011    -0.70580     0.92462
H      2.59433    -1.13354     1.40117
O     -2.14909     0.65415     2.81399
H     -1.50781     1.08581     2.20749
O     -3.01035     0.02518     1.86782
H     -3.82246     0.52895     1.97079
