 36
-1364.9735311576803
O      0.96310     2.36863    -0.19089
H      1.35708     1.64682    -0.73033
O      1.40337     2.04024     1.12633
H      0.59143     1.64628     1.49111
O     -0.87827    -2.27517    -0.78219
H     -0.51802    -1.89921    -1.59918
O     -1.70030    -1.20748    -0.30632
H     -1.26729    -0.95840     0.54378
O     -1.31236    -0.09367     3.02904
H     -1.64932     0.80034     2.87932
O     -0.47632    -0.20502     1.87381
H      0.35745    -0.56956     2.22307
O      2.37468    -0.84002     2.07745
H      2.41980    -1.71463     1.64831
O      3.06700    -0.02856     1.11481
H      2.61965     0.83457     1.23637
O     -1.37229     2.55712     1.59587
H     -1.12395     3.48017     1.47976
O     -2.77224     2.55954     1.28031
H     -2.76463     2.09668     0.42269
O     -1.39112     1.58834    -1.76821
H     -0.82211     1.91120    -1.04570
O     -2.58589     1.19534    -1.09430
H     -2.38547     0.25629    -0.89028
O      1.88134    -0.83607    -1.18340
H      2.39869    -0.53916    -0.40388
O      1.54172     0.39320    -1.83945
H      0.87677     0.05020    -2.46855
O     -1.51123    -0.40428    -3.53347
H     -1.44648     0.41310    -3.00040
O     -0.15919    -0.86276    -3.41765
H      0.02136    -1.19694    -4.30093
O      1.97392    -3.20427     0.83388
H      2.17529    -4.09215     1.14678
O      0.62427    -3.05251     1.26562
H      0.17943    -2.82936     0.42033
