 28
-1061.6456661718523
O     -1.17960    -1.69987    -1.38267
H     -1.69732    -1.40010    -0.60861
O     -0.09204    -2.39799    -0.74871
H      0.62755    -2.14050    -1.35944
O     -2.46072    -0.77113     0.77743
H     -1.81253    -0.88727     1.49088
O     -2.53806     0.64654     0.62014
H     -1.76367     0.84834     0.05790
O      0.98023    -0.21054     1.55075
H      0.41398     0.47250     1.96240
O      0.18262    -1.38494     1.72275
H      3.26454     1.12522    -0.71211
O     -1.73489     1.58456     3.00619
H     -2.28039     1.33713     2.23399
O     -0.49766     1.82995     2.32857
H     -0.42919     2.78939     2.34591
O      0.11182     2.10246    -1.71238
H      0.10492     1.49012    -2.46919
O     -0.29497     1.20286    -0.68218
H      0.54398     0.94834    -0.26003
O      3.19720    -0.58681     0.10368
H      2.58420    -0.59022     0.86011
O      2.58164     0.44627    -0.67365
H      0.19984    -1.77950     0.82626
O      0.25046    -0.22475    -3.11130
H     -0.50639    -0.66968    -2.69323
O      1.30529    -1.00357    -2.52599
H      1.75206    -0.34928    -1.95796
