 32
-1213.3088956874067
O     -1.73340    -2.94572     0.77066
H     -2.36262    -2.51276     0.18001
O     -0.98291    -1.82659     1.22973
H     -0.19384    -1.83866     0.65542
O      1.11165    -1.54717    -0.48596
H      2.05130    -1.30673    -0.42489
O      0.76556    -0.97951    -1.75141
H     -0.13473    -1.34025    -1.90795
O     -1.71160    -1.77414    -2.35081
H     -2.17883    -1.64055    -3.18171
O     -2.64669    -1.28782    -1.38832
H     -2.20429    -0.45488    -1.11677
O     -1.30856     0.90644    -0.71202
H     -0.64832     1.48604    -1.15299
O     -2.07545     1.84911     0.05245
H     -2.30428     1.29083     0.83335
O      1.87749     1.40522    -1.91036
H      1.36103     0.57546    -1.92259
O      0.91342     2.31162    -1.36193
H      1.19563     2.33748    -0.42411
O      3.79663     0.26343     0.78712
H      4.75241     0.23726     0.89775
O      3.61174    -0.32269    -0.49447
H      3.32042     0.44623    -1.01478
O      1.58672     1.75002     1.14989
H      2.41156     1.23331     1.11644
O      0.67084     0.73544     1.56493
H      0.09953     0.62534     0.78568
O     -2.45929     0.22477     2.12008
H     -1.94847    -0.60398     1.98926
O     -1.79322     0.85031     3.21029
H     -0.98067     1.16987     2.79427
