 24
-909.9772669852696
O     -2.55877    -1.57569     0.87207
H     -2.27638    -0.68251     0.56862
O     -2.68980    -1.36594     2.28038
H     -3.64319    -1.43774     2.39723
O      1.42119    -1.09977    -1.47372
H      0.87981    -1.62441    -0.85610
O      0.44565    -0.23448    -2.06385
H      0.90066     0.63385    -2.02231
O      2.77737     0.41551     0.30462
H      2.41697    -0.16333    -0.39695
O      1.56646     0.89556     0.88645
H      1.15466     0.07158     1.21040
O     -1.25457     0.46761    -0.17475
H     -0.76286     0.12343    -0.95457
O     -1.99634     1.53974    -0.75051
H     -1.30139     2.21422    -0.78109
O      0.06862    -2.32498     0.59464
H     -0.90428    -2.26174     0.54365
O      0.35252    -1.39791     1.64772
H     -0.20336    -1.69456     2.38206
O      0.53463     2.71410    -0.72670
H      0.85300     2.10001    -0.02789
O      1.35500     2.29838    -1.82220
H      2.24071     2.53126    -1.52329
