 36
-1364.9744007563663
O      1.20767     2.95052    -1.33969
H      0.54864     2.25309    -1.51621
O      1.74346     2.52821    -0.08446
H      2.44860     1.90579    -0.35288
O     -2.42920    -0.74642     0.22533
H     -1.64618    -0.33676     0.65996
O     -3.42640    -0.58654     1.22162
H     -3.76540     0.28622     0.98535
O      0.47338    -1.79710    -1.96072
H     -0.12931    -2.40190    -1.47854
O      1.13050    -1.17629    -0.85323
H      0.46935    -0.49894    -0.60846
O     -0.67405     0.99304    -1.57114
H     -1.49331     1.36946    -1.19328
O     -1.18375     0.23905    -2.67435
H     -0.59594    -0.53279    -2.61991
O      3.98349    -0.11221     0.31568
H      4.78175    -0.46650    -0.08827
O      3.26491     0.39045    -0.80898
H      2.55837    -0.28557    -0.91820
O     -0.28647     1.80572     1.44503
H      0.44696     2.11768     0.85395
O     -0.24618     0.38936     1.23431
H      0.60040     0.11087     1.67049
O     -2.88794     2.19873     0.83494
H     -1.95341     2.11108     1.11717
O     -2.72487     2.34557    -0.57449
H     -2.96152     3.26732    -0.71668
O      1.86632    -2.07381     2.12777
H      1.04873    -2.20638     1.62609
O      2.02559    -0.66225     2.06950
H      2.80546    -0.56052     1.48770
O     -1.31041    -3.08420    -0.35785
H     -1.89424    -2.31369    -0.15197
O     -0.73903    -3.36547     0.91728
H     -1.16552    -4.19693     1.14409
