 32
-1213.305128810658
O      0.85718    -3.08338    -1.09913
H      1.21282    -3.65018    -1.78987
O      2.01868    -2.34857    -0.70466
H      1.80786    -2.17171     0.22846
O      0.76681    -0.01481     1.22555
H      1.46371     0.55855     1.58598
O      1.14633    -1.31858     1.68692
H      0.25573    -1.66856     1.90255
O      1.13396     3.12249     1.49411
H      1.55275     3.93925     1.78690
O      2.25778     2.37373     1.03290
H      2.10117     2.37111     0.06204
O      1.58083     0.62069    -1.65581
H      1.14844     0.35646    -0.82855
O      1.57049     2.03927    -1.54335
H      0.60800     2.26001    -1.62623
O     -0.98841     2.47082    -1.18562
H     -1.54055     1.92762    -0.58501
O     -0.74390     3.64932    -0.42287
H     -0.13058     3.32992     0.25851
O     -1.14486    -1.37336    -1.60204
H     -0.50820    -2.07045    -1.33578
O     -0.66206    -0.94730    -2.86921
H      0.17665    -0.51924    -2.63104
O     -1.42151    -1.98622     2.10788
H     -2.03180    -1.48923     1.51826
O     -1.69507    -3.34014     1.75630
H     -2.08482    -3.66284     2.57376
O     -2.01212     0.92040     0.73936
H     -1.17368     0.65247     1.15366
O     -2.58310    -0.33186     0.36395
H     -2.13771    -0.54621    -0.48414
