 32
-1213.3016809178334
O      0.48430     0.06936     1.76507
H      0.69732     0.66895     2.48976
O      1.68046     0.05378     0.99094
H      1.50491     0.71203     0.27533
O      2.07590    -1.29055    -1.82631
H      1.11952    -1.20722    -2.00101
O      2.05539    -2.05292    -0.61395
H      2.10600    -1.33833     0.04485
O     -0.60184    -1.01202    -2.00337
H     -1.16251    -1.02592    -1.20533
O     -0.82197     0.30358    -2.50991
H     -1.39884     0.13695    -3.26397
O     -1.68703     0.44969     0.27036
H     -0.86317     0.32724     0.78928
O     -1.48410     1.71183    -0.35747
H     -1.10503     1.42085    -1.20591
O      1.48656     1.64283    -1.05701
H      1.55192     2.58144    -0.79216
O      2.82510     1.28318    -1.40102
H      2.68333     0.35025    -1.65510
O     -1.95337    -1.47980     2.97328
H     -1.23567    -2.00450     2.59078
O     -2.93854    -1.58917     1.94414
H     -2.84671    -0.73690     1.49059
O     -1.59803    -2.83099    -0.04889
H     -2.29671    -2.64667     0.60340
O     -0.45559    -2.71214     0.81431
H      0.27856    -2.64967     0.18487
O      0.86013     4.00886     0.00602
H      1.23563     4.72566     0.52445
O      0.32440     3.17060     1.03736
H     -0.43652     2.77496     0.57110
