 32
-1213.3038095842867
O     -0.45774     2.04209    -0.88379
H     -0.76576     2.05595     0.03934
O     -0.96068     0.77006    -1.30729
H     -0.87153     0.83762    -2.27911
O      0.58466    -2.97467    -0.49492
H      0.83478    -2.38567     0.23261
O     -0.49070    -2.25067    -1.09327
H     -0.06837    -1.78814    -1.83646
O      0.47690    -0.56427    -3.39659
H      1.19602    -0.04064    -2.98841
O     -0.35536     0.49273    -3.87543
H     -0.80985     0.05472    -4.59958
O     -1.77182    -1.33228     1.03394
H     -1.41155    -1.75398     0.21820
O     -2.56994    -0.25035     0.53235
H     -2.02482     0.06210    -0.21902
O      2.19262     0.83241    -1.85943
H      1.77021     0.91570    -0.97501
O      3.14165    -0.21516    -1.59437
H      3.97167     0.27258    -1.62221
O      2.09879    -0.86800     0.87917
H      2.59926    -0.92899     0.05259
O      1.38924     0.35431     0.60269
H      0.78646     0.38186     1.36802
O     -0.65673    -0.29128     4.09040
H      0.06717    -0.65950     4.60332
O     -0.08098    -0.28317     2.78618
H     -0.76764    -0.75718     2.25963
O     -1.42851     2.61013     2.99861
H     -0.90970     1.94555     3.46763
O     -1.39865     2.07891     1.67533
H     -2.12783     1.43682     1.66568
