 36
-1364.9825075416986
O      0.74077     2.42740    -0.35128
H      0.79272     1.88934    -1.17001
O      1.86587     1.94799     0.38623
H      1.55412     2.02862     1.31415
O     -1.49967    -1.86962    -0.20437
H     -1.40558    -2.56944    -0.86794
O     -2.89018    -1.90812     0.11736
H     -3.17540    -1.06861    -0.27433
O      0.14528     1.09192     3.21752
H      0.22797     0.44698     2.47569
O      1.26854     1.93531     2.97861
H      1.87884     1.67645     3.67595
O      0.36722    -0.58895     1.20852
H     -0.33813    -0.93515     0.61475
O      1.15777    -1.74479     1.49224
H      1.98942    -1.42234     1.09516
O     -1.50471     1.72803     0.90905
H     -0.75094     2.12375     0.41691
O     -1.77579     2.71138     1.89737
H     -1.40670     2.25005     2.66135
O     -3.32225     0.71341    -0.65278
H     -2.77261     1.12478     0.06297
O     -2.50009     1.00802    -1.77800
H     -2.97780     1.72213    -2.21065
O      2.91659    -0.45595    -0.02041
H      2.51971     0.44138     0.01371
O      2.70025    -0.84329    -1.37658
H      2.38287    -1.76055    -1.26144
O     -0.22285    -0.31630    -2.27567
H     -1.02581     0.19025    -2.04823
O      0.77377     0.69555    -2.40897
H      1.57418     0.17550    -2.18358
O      0.29171    -3.22701    -1.91984
H      0.31265    -2.33970    -2.30723
O      1.40177    -3.16362    -1.03234
H      0.99325    -3.08817    -0.15579
