 32
-1213.312470549063
O     -0.79686    -1.97017    -1.19957
H     -0.73392    -1.69836    -2.13455
O      0.52030    -2.48458    -0.98749
H      0.44731    -2.82175    -0.08328
O     -0.83039    -2.33723     2.17467
H     -0.90534    -2.64260     3.08474
O      0.57907    -2.38045     1.93659
H      0.78266    -1.41836     1.91771
O     -0.09435     0.26262    -3.55113
H     -0.54055     0.57186    -2.72960
O     -0.66862    -1.02902    -3.69580
H     -1.35463    -0.87963    -4.35212
O      0.45661     2.95052     1.46166
H      0.25606     2.66764     0.54880
O     -0.84170     3.05433     2.04179
H     -1.06731     2.12370     2.17222
O      0.13924     1.82637    -0.97513
H      0.85069     1.14879    -1.08104
O     -1.00045     1.00846    -1.21870
H     -1.17642     0.58756    -0.34844
O      2.39624    -0.17195    -2.47575
H      1.62122     0.01522    -3.03188
O      1.78722    -0.17508    -1.18785
H      1.37909    -1.07257    -1.15603
O      1.06394     0.19078     1.55353
H      1.72959     0.28376     0.84949
O      1.64470     0.89904     2.64972
H      1.29775     1.79448     2.44247
O     -2.09827     0.60015     2.20764
H     -3.04556     0.74045     2.14085
O     -1.84875    -0.14770     1.03071
H     -1.47678    -0.97810     1.40034
