 32
-1213.307403592328
O      3.05132     0.10861    -0.40442
H      2.91931    -0.82567    -0.63377
O      3.53960     0.06105     0.92893
H      2.73186     0.22385     1.43780
O      0.71627    -1.37074     0.82902
H      0.50014    -1.53434     1.75823
O     -0.08874    -2.32952     0.13588
H     -0.90910    -1.81757    -0.06988
O     -2.27009     1.18868    -2.08769
H     -1.31336     1.39295    -2.14928
O     -2.79157     2.38732    -1.52376
H     -3.49452     2.59248    -2.14471
O      0.96340    -0.78893     3.59220
H      1.23948    -0.67877     4.50946
O      1.29473     0.49245     3.04519
H      0.42091     0.78402     2.73906
O      0.40880     1.15453    -2.03122
H      0.62563     0.21568    -2.19053
O      0.71551     1.31595    -0.63823
H      1.64407     0.97788    -0.56385
O      1.74114    -2.10251    -1.75182
H      1.07149    -2.37220    -1.08689
O      0.90197    -1.42415    -2.68283
H      1.22434    -1.77595    -3.51598
O     -1.63213     2.22401     1.33958
H     -2.18757     2.18477     0.54977
O     -1.02403     0.94245     1.30586
H     -0.38137     1.03392     0.55728
O     -3.02094    -0.67583     0.62372
H     -2.31753    -0.15396     1.06030
O     -2.33205    -1.06496    -0.57302
H     -2.40132    -0.25834    -1.11812
