 32
-1213.3067439056438
O      1.51674     0.29829     1.95175
H      2.09928    -0.11177     1.28783
O      0.48133    -0.68791     2.02408
H     -0.27930    -0.16224     2.33431
O      0.22264    -2.89546    -0.10325
H      1.03152    -2.44887     0.19416
O      0.61767    -3.41954    -1.36716
H      0.63310    -4.36147    -1.17023
O     -1.74041     0.57324     2.88997
H     -2.20258     0.23821     3.66503
O     -2.78286     0.59092     1.91978
H     -2.40578    -0.01639     1.24966
O     -1.87114     2.07311    -0.34728
H     -0.93899     2.17758    -0.07268
O     -2.52939     3.00063     0.50932
H     -2.90534     2.39026     1.15648
O      2.38133    -0.89849    -0.27323
H      1.75087    -0.62299    -0.98813
O      3.28752    -1.73229    -0.98032
H      2.68766    -2.20370    -1.57464
O      0.71791     2.31279     0.38994
H      0.96889     1.68112     1.10294
O      1.74832     2.05080    -0.55827
H      2.20289     2.89674    -0.57057
O      0.66708    -0.43313    -2.22747
H     -0.29648    -0.52832    -2.05270
O      0.75523     0.86891    -2.81565
H      1.05532     1.37519    -2.04711
O     -1.72392    -0.97105     0.05950
H     -1.06359    -1.68170    -0.05788
O     -1.83464    -0.43378    -1.26179
H     -2.00866     0.51087    -1.05837
