 32
-1213.3088342425772
O      2.82110    -1.56437     0.34297
H      2.45746    -1.46953     1.23713
O      1.83406    -2.40204    -0.25899
H      1.86328    -2.10911    -1.18339
O      1.63951     0.23669     3.73426
H      0.74014     0.25318     4.08070
O      1.43156    -0.41466     2.48751
H      1.38797     0.34516     1.86799
O     -1.77931     1.41785    -3.00573
H     -0.92513     0.94105    -2.97894
O     -2.71272     0.34236    -2.98109
H     -3.09881     0.39817    -3.86012
O     -1.49378     2.73375    -0.54564
H     -1.91735     2.53010    -1.39188
O     -1.23669     1.39885    -0.11009
H     -1.56003     1.39565     0.80789
O      1.37738     1.28533     0.43749
H      0.46926     1.32142     0.07486
O      2.14801     0.82253    -0.68256
H      2.55999     0.02172    -0.30193
O      0.60105     0.17471    -2.74234
H      1.19908     0.48546    -2.02711
O      0.68080    -1.24704    -2.60735
H     -0.12155    -1.41804    -2.07556
O     -1.25477    -1.45736    -0.79011
H     -1.62720    -0.56357    -0.79320
O     -0.55933    -1.42180     0.46471
H      0.29472    -1.83527     0.22806
O     -1.56701     0.34629     2.56412
H     -1.21648    -0.46661     2.16375
O     -1.52342    -0.00976     3.94336
H     -2.45691     0.00096     4.17604
