 40
-1516.644656995326
O     -0.26139     0.32456     2.99700
H     -0.21065     0.92313     2.22159
O      1.03536    -0.28121     3.01479
H      1.63713     0.44568     2.75976
O      2.75667    -0.14545    -2.43505
H      3.68728    -0.33817    -2.59891
O      2.70086     1.27626    -2.59231
H      2.62217     1.55093    -1.66268
O     -0.35267     1.96608    -1.77306
H     -1.32879     1.95596    -1.74353
O     -0.09827     1.15088    -2.91527
H      0.75474     1.51426    -3.19425
O     -1.96675    -1.42434     1.78842
H     -1.40068    -0.93570     2.41838
O     -2.06947    -0.43157     0.76744
H     -1.74773    -0.88480    -0.04709
O     -2.94933     1.83730    -1.12373
H     -3.88702     1.86825    -1.33611
O     -2.95384     1.97576     0.29097
H     -2.67370     1.06641     0.55835
O     -0.13582     1.90390     0.87098
H      0.00033     1.84418    -0.09779
O     -0.66811     3.21716     1.02820
H     -1.60415     3.00364     0.87200
O      2.46423     1.63459     1.72454
H      1.74457     2.26624     1.58264
O      2.70745     1.21668     0.37674
H      2.43663     0.27579     0.39024
O     -0.13353    -4.39865     0.15763
H      0.41130    -3.63906     0.43306
O     -1.41469    -3.77878     0.02428
H     -1.55924    -3.37333     0.89156
O      0.98883    -2.11178     1.08394
H      0.93522    -1.53659     1.87868
O      1.71153    -1.25977     0.19104
H      1.15272    -1.30567    -0.61573
O      0.05051    -1.37212    -1.90178
H     -0.04622    -0.55937    -2.43125
O     -1.30138    -1.61328    -1.50863
H     -1.26753    -2.55029    -1.21238
