 16
-606.6370103927267
O     -1.85022    -0.24820     1.66223
H     -2.75392    -0.09113     1.95442
O     -1.55241     1.00432     1.03339
H     -1.56004     0.74761     0.09000
O      1.87502     1.19924     0.44312
H      2.60640     1.65748     0.86918
O      1.25402     0.56542     1.57088
H      0.37425     0.97340     1.54808
O      1.51861    -1.45676    -0.97552
H      1.65639    -0.50561    -0.85521
O      0.40806    -1.69577    -0.10360
H      0.66860    -1.25024     0.71947
O     -1.27767    -0.09422    -1.49125
H     -0.67388    -0.78063    -1.12931
O     -0.36540     0.77794    -2.16241
H     -0.43314     0.46117    -3.06817
