 28
-1061.645138929645
O      0.43106    -1.64063    -0.92407
H      0.57250    -2.14282    -0.10775
O      0.98840    -0.38721    -0.51864
H      0.45589     0.26516    -1.03174
O     -2.46473    -1.74660     0.61661
H     -2.51614    -0.86564     1.04201
O     -2.24022    -1.35362    -0.74215
H     -1.27545    -1.47927    -0.84154
O     -0.20200    -2.88090     1.56829
H     -1.12496    -2.69587     1.31306
O     -0.02123    -1.85747     2.53998
H      0.51272     0.05140     2.21123
O      0.97865     2.44315    -1.20563
H      1.76920     2.08231    -1.66154
O     -0.04936     1.65370    -1.81042
H     -0.83010     1.92362    -1.30027
O     -2.48681     1.25459    -0.34221
H     -2.53779     0.36976    -0.75052
O     -2.33986     0.84244     1.02377
H     -1.42567     1.15246     1.20922
O      0.12812     1.69038     1.41544
H      0.78363     1.99165     0.76720
O      0.91852     0.92068     2.31889
H      0.29547    -2.35350     3.29948
O      3.51243     0.30435    -1.23266
H      2.63609    -0.00906    -0.93224
O      3.14434     1.26209    -2.23459
H      3.25980     0.77257    -3.05572
