 40
-1516.639422425034
O      3.51802    -0.90888    -1.67860
H      3.64527    -0.55766    -0.77447
O      2.38833    -0.13372    -2.07055
H      2.77607     0.61480    -2.53606
O     -2.01518    -2.45916    -0.17300
H     -1.42586    -2.78187     0.52863
O     -3.29721    -2.89201     0.27296
H     -3.72676    -2.03882     0.41542
O      1.42366     3.33480    -0.80169
H      0.91833     3.77866    -0.10785
O      1.48762     2.01598    -0.26883
H      0.84925     1.52442    -0.81684
O      0.53075    -2.62217     1.18863
H      0.23118    -1.69802     1.29458
O      1.64567    -2.41111     0.31672
H      1.22038    -2.46904    -0.56641
O     -2.96071     0.37003     1.53257
H     -3.38585     1.14116     1.92068
O     -3.75893     0.11713     0.37625
H     -3.07754     0.16323    -0.32393
O      0.22895     0.70601     2.12608
H      1.16024     0.38934     2.02988
O     -0.39421    -0.15046     1.17022
H     -1.35417    -0.04230     1.37342
O     -1.83407     0.32870    -1.49693
H     -1.19989    -0.27476    -1.94982
O     -1.11061     1.56159    -1.48340
H     -1.40060     1.95182    -0.64654
O      0.02317    -1.28956    -2.54218
H      0.94773    -0.98051    -2.44115
O      0.06519    -2.54361    -1.86191
H     -0.82427    -2.58514    -1.47021
O      3.38724     0.39500     0.70542
H      2.73330     1.05531     0.41094
O      2.62222    -0.36190     1.64226
H      2.44886    -1.19841     1.14849
O     -0.56930     4.02728     1.63104
H     -1.36071     4.54947     1.78230
O     -1.14791     2.78170     1.23494
H     -0.53699     2.13322     1.65598
