 32
-1213.303402953282
O     -0.38611    -3.30101     1.01463
H     -0.98754    -2.57758     1.23324
O      0.77777    -2.52926     0.71353
H      1.47557    -2.99395     1.19039
O      1.02469    -1.70552    -1.80916
H      0.98493    -2.20510    -0.97414
O      0.79825    -0.39725    -1.27985
H     -0.18332    -0.36683    -1.16694
O     -2.13164     1.26535    -1.79036
H     -1.36438     1.39417    -2.38055
O     -1.86422    -0.03926    -1.25220
H     -2.21776     0.05755    -0.34286
O     -0.03101     2.13628     0.09643
H      0.38805     2.64426    -0.61527
O     -1.29121     2.78402     0.29305
H     -1.81510     2.33823    -0.40307
O     -0.03677     1.93204    -3.32637
H      0.26282     1.77057    -4.22636
O      1.17773     1.89689    -2.58347
H      1.13368     0.99967    -2.18889
O      2.70656    -0.75416     1.70836
H      2.82246     0.13647     2.06360
O      3.29383    -0.66423     0.40422
H      2.51279    -0.54237    -0.15266
O      0.03175    -0.16983     2.44524
H      0.64611    -0.77171     1.98511
O      0.74668     1.07108     2.44478
H      0.43440     1.47560     1.60930
O     -2.35768     0.06122     1.40183
H     -1.48547     0.13199     1.87240
O     -2.52194    -1.35803     1.33006
H     -3.24467    -1.49298     1.94991
