 40
-1516.6384222928343
O     -0.45663     0.75156     2.21706
H      0.23202     0.11076     2.45403
O      0.10116     1.98385     2.70521
H     -0.56429     2.58406     2.31807
O      2.14753    -0.89464    -1.03486
H      2.17072    -1.82215    -0.74788
O      1.14539    -0.39978    -0.13643
H      1.43156     0.53655    -0.03553
O      1.65854     0.98257    -3.47378
H      2.28933     0.49825    -2.92418
O      0.60887     1.17185    -2.53817
H      0.05932     0.35981    -2.57361
O     -1.53829     3.13774     0.90545
H     -0.89245     3.16484     0.17209
O     -2.36923     2.02841     0.55355
H     -1.86993     1.27739     0.90922
O     -1.77919     2.91535    -2.51763
H     -1.08911     2.38950    -2.94047
O     -2.67974     1.89228    -2.09215
H     -2.71155     2.06080    -1.12803
O      0.66813     2.95388    -0.59805
H      0.63081     2.34445    -1.36610
O      1.61216     2.24070     0.21745
H      1.32619     2.48785     1.10983
O      1.16041    -1.67825     2.78532
H      1.65644    -2.30949     2.22155
O      0.54296    -2.55940     3.71777
H      1.00777    -2.32210     4.52522
O     -1.68939    -3.30687    -0.24751
H     -1.74117    -2.38883    -0.58410
O     -0.75039    -3.14763     0.81665
H     -1.21643    -2.60679     1.46718
O      1.72987    -3.41920    -0.02725
H      0.78956    -3.34251     0.26905
O      2.40822    -3.48543     1.22491
H      2.49125    -4.43296     1.37528
O     -1.47214    -0.49298    -2.15184
H     -2.08389     0.27574    -2.16413
O     -1.41564    -0.73450    -0.74627
H     -0.45179    -0.64287    -0.53605
