 36
-1364.9720337707026
O      1.96390    -0.02166     1.45645
H      1.24188     0.03070     2.11378
O      1.75056     1.14085     0.65621
H      1.48219     0.75155    -0.19487
O      0.10997    -0.03520     3.42532
H      0.32340    -0.46716     4.25822
O     -1.11392    -0.66857     3.07450
H     -0.87671    -1.03148     2.19612
O     -2.40758    -1.06132    -1.16845
H     -2.06352    -1.37093    -2.02236
O     -2.60265     0.33848    -1.39782
H     -2.59834     0.66534    -0.46665
O      0.03469     0.63669    -1.64396
H     -0.95081     0.58605    -1.62335
O      0.29608     1.92183    -2.20679
H      0.09905     2.48830    -1.44201
O      0.91258    -1.60371    -2.80445
H      0.68628    -0.71207    -2.47231
O     -0.31649    -2.30612    -2.56328
H     -0.15292    -2.63667    -1.66282
O     -0.47881    -1.49550     0.63904
H     -1.20063    -1.29637    -0.00052
O      0.14074    -2.63543     0.05646
H      1.07163    -2.36309     0.06958
O     -0.08725     3.02540     1.05795
H      0.67284     2.41231     0.92913
O     -0.16791     3.67994    -0.20082
H      0.33690     4.48459    -0.05027
O      3.50876    -0.80803    -0.75772
H      3.46311    -0.67737     0.19493
O      2.91653    -2.11339    -0.84702
H      2.55280    -2.08249    -1.74276
O     -1.98450     1.09109     1.01093
H     -1.39096     1.85568     1.16571
O     -2.93346     1.15654     2.06871
H     -2.51038     0.52595     2.67047
