 32
-1213.307520344854
O      1.09029     0.42708     2.26749
H      1.72067     0.69449     1.56459
O      0.52491    -0.74297     1.68135
H      0.10621    -0.40258     0.86570
O     -2.70845     1.19276    -1.55013
H     -2.85803     0.23673    -1.60600
O     -1.33294     1.20783    -1.93490
H     -1.06727     2.11720    -1.69255
O      2.49007    -1.82244    -0.67612
H      1.54375    -1.95265    -0.86549
O      2.69975    -2.53765     0.53264
H      2.10298    -2.08180     1.14566
O     -0.52449     3.62987    -1.22403
H     -0.95339     4.46927    -1.02776
O      0.36554     3.45152    -0.12541
H     -0.15336     2.84806     0.45175
O      2.53304     0.73026     0.05131
H      2.73841    -0.19055    -0.21948
O      1.67053     1.10045    -1.03432
H      1.67617     2.06508    -0.95599
O     -0.43712    -1.15527    -1.10875
H     -0.46423    -0.26651    -1.51294
O     -1.84436    -1.48033    -1.14503
H     -1.86620    -2.14132    -0.43389
O     -1.25178    -3.03654     1.03542
H     -0.82483    -2.30677     1.51228
O     -0.10947    -3.77603     0.59607
H     -0.16686    -4.57875     1.12938
O     -1.67243     0.74246     0.95666
H     -2.13727     1.12166     0.19107
O     -1.03257     1.88672     1.55225
H     -0.35564     1.42502     2.08752
