 40
-1516.6449754647595
O      2.17388    -0.79290    -1.43739
H      2.26017     0.08165    -1.87473
O      0.75831    -0.80692    -1.27414
H      0.63794    -0.41621    -0.38793
O     -2.81827     1.30832     1.78627
H     -2.09966     0.75067     1.43034
O     -2.84372     2.42632     0.89413
H     -3.05253     2.01401     0.03208
O      0.99537     1.22345     2.19407
H      0.52739     1.98189     1.79060
O      1.74151     0.71363     1.08760
H      2.14477    -0.09398     1.46729
O     -2.61226     1.18491    -1.45988
H     -2.58543     0.21341    -1.51810
O     -1.23300     1.48300    -1.71808
H     -1.11155     2.30782    -1.20130
O     -0.42091    -0.99711     2.18605
H     -0.01491    -0.18571     2.53681
O     -0.92084    -0.40808     0.97880
H     -1.37652    -1.16477     0.52586
O      1.68875     1.69025    -2.24300
H      0.71732     1.68783    -2.21336
O      2.04823     2.57383    -1.18581
H      2.17435     1.95622    -0.45040
O     -0.36533     3.27504     1.03810
H     -1.33218     3.06130     1.12389
O     -0.32411     3.58870    -0.35832
H      0.63066     3.56489    -0.53680
O     -1.76611    -1.37766    -1.71862
H     -0.81393    -1.14794    -1.73454
O     -1.85142    -2.28730    -0.62059
H     -1.18875    -2.97531    -0.83994
O      2.32524    -1.78001     1.78797
H      1.40144    -2.01449     1.97119
O      2.61984    -2.55939     0.62595
H      2.53877    -1.90097    -0.09197
O      0.13653    -4.10434    -0.93842
H      0.03854    -5.01705    -1.22529
O      0.52686    -4.26859     0.42603
H      1.38024    -3.79363     0.42322
