 32
-1213.3101231875253
O      2.04855    -0.32706     2.09916
H      1.16350     0.05331     2.28441
O      1.97309    -1.53062     2.86586
H      2.64741    -1.38106     3.53414
O      1.22069    -3.20751     0.91409
H      1.56125    -2.78196     1.71977
O     -0.18217    -3.24081     1.21097
H     -0.53044    -3.07075     0.32583
O     -0.27185     0.47964    -2.65320
H      0.61371     0.88869    -2.58636
O     -1.13761     1.58236    -2.88144
H     -0.90434     2.18604    -2.15725
O     -1.17979     2.98133    -0.35495
H     -1.90715     2.33371    -0.22314
O     -0.29260     2.57779     0.69119
H      0.45574     2.21277     0.18518
O      1.64551     1.17545    -0.54132
H      1.44618     0.20436    -0.59818
O      2.03466     1.50468    -1.86921
H      2.94554     1.19698    -1.90103
O     -2.77729     0.89806    -0.12661
H     -2.26113     0.28687     0.42688
O     -2.89750     0.14451    -1.33726
H     -2.36975     0.67861    -1.95228
O      1.18480    -1.38403    -1.00818
H      1.45757    -2.09216    -0.38832
O     -0.23541    -1.63909    -1.03296
H     -0.50835    -0.93168    -1.64597
O     -1.22254    -0.46792     1.58528
H     -0.72427    -1.28896     1.71443
O     -0.48854     0.48039     2.36167
H     -0.59543     1.29706     1.82962
