 12
-454.9692641677064
O     -2.22787     1.13840    -1.64912
H     -1.83994     0.27452    -1.43908
O     -1.98777     1.84343    -0.42264
H     -2.86504     1.85584    -0.02530
O      2.08698    -1.32077     0.74961
H      1.58666    -0.68826     1.28066
O      3.16062    -0.49648     0.27977
H      3.91235    -0.88981     0.73561
O     -0.49484    -0.12901     0.92297
H     -0.79065     0.71514     0.54620
O     -0.66033    -0.98298    -0.22224
H      0.25891    -1.22923    -0.40292
