 36
-1364.972460136081
O      1.58149     2.34830    -0.71106
H      1.42501     1.90729    -1.56907
O      0.45120     1.84395     0.01155
H      0.85954     1.16647     0.59624
O     -1.58408     0.40237     2.17371
H     -2.04946     1.10085     1.65320
O     -1.76930    -0.76066     1.34801
H     -1.06608    -1.32452     1.70368
O      1.98154     0.35378     1.63358
H      1.80347     0.40623     2.58846
O      3.31494     0.85658     1.49804
H      3.14381     1.61202     0.91676
O     -1.60813     3.18148     0.99849
H     -0.76093     2.79073     0.69977
O     -2.56101     2.22067     0.53399
H     -2.26862     2.03278    -0.37098
O     -1.68130     0.26764    -1.48744
H     -1.76205    -0.22004    -0.64778
O     -2.60459    -0.38349    -2.35010
H     -2.00985    -0.93564    -2.87980
O      0.67496    -1.40013    -0.32604
H      0.14733    -2.00930    -0.88236
O      1.57337    -2.29273     0.32261
H      1.94395    -1.67515     0.97070
O      1.37822    -0.29835    -2.62956
H      1.35273    -0.50832    -1.67579
O      0.57460     0.87265    -2.74901
H     -0.26292     0.61899    -2.31010
O      0.40230    -0.42355     3.88322
H     -0.38612     0.02141     3.52321
O      0.26228    -1.70200     3.24463
H      0.03303    -2.27509     3.98538
O     -0.32620    -2.91137    -2.25293
H      0.21745    -3.65341    -2.53632
O     -0.40844    -2.11726    -3.44057
H      0.30598    -1.45941    -3.27321
