 40
-1516.6463185414268
O      1.72924     2.31948     1.69707
H      2.35115     1.56934     1.61930
O      0.57107     1.59318     2.14190
H     -0.15946     2.18579     1.86715
O      1.81735    -1.38075    -0.56708
H      1.24656    -2.16489    -0.36597
O      1.24343    -0.88159    -1.77715
H      1.29218     0.08280    -1.64196
O     -2.64972     2.32997    -2.17647
H     -2.32492     2.89965    -1.45529
O     -1.41233     1.83088    -2.68972
H     -1.67796     0.99052    -3.10477
O     -1.94550     0.36035    -0.12049
H     -1.85447    -0.13730    -0.95817
O     -1.05784    -0.38077     0.71349
H     -0.30761     0.22590     0.80607
O     -1.56882     3.64409    -0.02908
H     -0.62741     3.59340    -0.28966
O     -1.59901     2.69732     1.04285
H     -1.93178     1.89827     0.58497
O      0.82083     1.79287    -1.30028
H     -0.03001     1.88506    -1.78551
O      0.95971     3.10588    -0.75959
H      1.37373     2.90047     0.09787
O      1.84042    -0.75786     2.55572
H      1.20530    -0.03908     2.71048
O      2.71406    -0.11943     1.61905
H      2.46632    -0.58053     0.79444
O      0.21596    -3.36845     0.18594
H      0.23142    -3.72558     1.09575
O     -1.15093    -2.97771     0.02180
H     -1.12628    -2.04555     0.31207
O      1.89339    -3.70707     2.53741
H      1.88242    -2.74709     2.63342
O      0.51650    -3.97684     2.79118
H      0.56133    -4.78601     3.30956
O     -1.55276    -0.68256    -3.63544
H     -2.17382    -1.35499    -3.92637
O     -1.35059    -1.07502    -2.28968
H     -0.37466    -1.17118    -2.25100
