 36
-1364.9779440503737
O      4.19658    -0.68209    -0.45293
H      3.48302    -1.32993    -0.56916
O      3.88433     0.26267    -1.47667
H      4.59936     0.12831    -2.10818
O     -0.36204     0.40896    -2.45798
H     -0.87886    -0.38388    -2.72109
O      0.97454    -0.11381    -2.48889
H      1.43860     0.61018    -2.02491
O      2.00591    -0.39947     2.08335
H      1.17327     0.01758     2.40061
O      2.67105     0.70705     1.47105
H      3.45141     0.26610     1.10134
O      0.43762    -1.82239    -0.48889
H      0.65792    -1.21506    -1.23584
O      1.71769    -2.12882     0.07423
H      1.72708    -1.53487     0.85273
O     -2.85627    -1.79852    -2.07604
H     -2.57813    -1.19232    -1.35971
O     -1.66845    -1.84010    -2.87330
H     -1.35909    -2.74134    -2.73871
O     -3.44689     1.41082     2.48856
H     -2.50155     1.66670     2.43791
O     -3.80901     1.55035     1.10836
H     -4.75435     1.71383     1.17022
O     -0.44071     0.44935     2.74618
H     -1.02029    -0.11595     2.19265
O     -0.80131     1.75460     2.29966
H     -0.46287     1.77602     1.37622
O      1.30088     1.69857    -0.63522
H      1.71382     1.38597     0.19108
O     -0.06556     1.90688    -0.25383
H     -0.50419     1.45538    -0.99924
O     -1.67599    -0.98895     0.88776
H     -0.91845    -1.39191     0.41011
O     -2.18396    -0.12585    -0.12907
H     -2.84667     0.40100     0.37122
