 32
-1213.3084075097054
O      2.38583     1.25733    -0.90498
H      2.16221     0.48099    -1.45752
O      1.44305     2.23915    -1.33757
H      1.17865     2.61841    -0.47857
O     -0.94108    -2.83708    -0.70940
H     -0.54156    -2.51849    -1.54486
O      0.16107    -2.57393     0.16820
H     -0.21737    -1.98371     0.84842
O     -0.74769     0.90172    -2.06238
H      0.02796     1.49621    -2.02819
O     -1.02398     0.87781    -0.65257
H     -1.74176     0.21970    -0.60548
O      0.83654     2.97312     1.15627
H      1.23365     3.61896     1.74875
O     -0.55772     3.12568     1.39274
H     -0.77237     2.23993     1.72325
O      0.43258    -1.44724    -2.54020
H     -0.04960    -0.59391    -2.46393
O      1.66522    -1.14624    -1.87355
H      1.54680    -1.58842    -1.01750
O      1.94578     0.18901     1.48408
H      2.09893     0.71955     0.66767
O      2.52554    -1.05416     1.08663
H      3.11892    -1.22148     1.82436
O     -1.45923     0.30080     2.24989
H     -2.23415    -0.10364     1.82814
O     -0.50369    -0.74781     2.08077
H      0.33329    -0.25205     1.94772
O     -2.92219    -1.05240    -0.42719
H     -2.32262    -1.83287    -0.45703
O     -3.45631    -1.14011     0.89231
H     -4.38734    -0.97963     0.71481
