 36
-1364.9754885723955
O     -1.96683     0.31607     3.47361
H     -1.87701     0.43311     2.50558
O     -0.78860     0.96180     3.95418
H     -1.13964     1.78039     4.31852
O     -1.38319    -0.96478     0.44830
H     -0.75220    -1.18048     1.17160
O     -1.68201     0.40801     0.76358
H     -1.27483     0.85805    -0.00154
O      2.64539    -1.36257     0.01045
H      2.11511    -0.72216     0.52631
O      1.70391    -2.40500    -0.24792
H      1.27594    -2.07060    -1.06146
O      2.48551    -0.31999    -2.39353
H      2.84301    -0.71297    -1.56877
O      1.26259    -1.06829    -2.45448
H      0.57169    -0.37437    -2.49304
O     -4.23346    -0.21358    -1.54804
H     -4.79636    -0.89513    -1.92430
O     -2.94993    -0.79523    -1.73781
H     -2.64888    -0.96821    -0.82206
O      1.59794     1.29796     2.21212
H      0.80106     1.09055     2.71592
O      1.24875     0.68545     0.97017
H      1.39369     1.40015     0.32516
O      2.04037     2.20178    -1.47395
H      2.21741     1.36259    -1.94668
O      1.37223     2.95786    -2.48268
H      1.84331     3.79344    -2.41959
O     -0.73349     1.59608    -1.47999
H     -0.14660     2.26040    -1.87914
O     -0.78692     0.64351    -2.55136
H     -1.63001     0.19363    -2.35367
O      0.21756    -1.59817     2.46506
H     -0.00289    -1.70262     3.39990
O      0.30929    -2.95304     2.00478
H      0.91270    -2.81594     1.25002
