 24
-909.9803959676689
O     -2.21314    -1.21902    -0.09540
H     -2.24015    -0.33682    -0.50630
O     -1.97518    -0.85060     1.26852
H     -1.08254    -1.20788     1.41849
O      0.97731    -1.18081    -1.17561
H      0.96470    -0.35429    -1.70206
O     -0.02024    -1.95702    -1.83950
H     -0.72114    -1.95071    -1.17089
O      1.07154     1.57209     1.75397
H      0.17671     1.79588     1.43296
O      1.69236     1.04905     0.57727
H      1.39556     0.12229     0.56282
O     -1.76369     1.39025    -0.47046
H     -1.00609     1.81493    -0.90796
O     -1.53052     1.73556     0.90350
H     -1.81520     0.89514     1.31086
O      1.11462    -2.66937     1.02984
H      1.21303    -2.29929     0.13002
O      0.61888    -1.49210     1.68027
H      1.21194    -1.39217     2.42949
O      0.63483     2.19396    -1.50775
H      1.16800     1.90746    -0.72767
O      0.97231     1.16186    -2.43488
H      1.59003     1.60804    -3.02390
