 36
-1364.9731438200586
O      1.56096     2.25563     0.68410
H      1.75417     1.63907     1.40454
O      0.38138     1.62931     0.19456
H      0.70199     1.04890    -0.53864
O     -0.46934    -1.93063     2.34135
H     -0.33467    -2.40383     1.49877
O     -1.74936    -1.33108     2.14086
H     -1.57100    -0.39241     2.37675
O      2.48876    -2.13154    -2.55369
H      1.65983    -2.47719    -2.16917
O      3.38222    -2.29795    -1.44952
H      4.03490    -2.89520    -1.82761
O      0.11663    -2.51654    -1.28328
H     -0.48028    -1.75603    -1.11441
O      0.51795    -2.88554     0.03440
H      1.30277    -2.32970     0.16513
O      0.15476     0.88904    -3.12854
H     -0.68948     0.45586    -2.93972
O      0.96885     0.35706    -2.07916
H      1.59405    -0.22467    -2.54090
O     -2.44250     1.53612     1.64184
H     -2.34232     2.47778     1.42611
O     -1.18064     1.24786     2.26591
H     -0.57428     1.38206     1.50178
O     -1.68941     3.14812    -0.61318
H     -0.80013     2.84617    -0.35273
O     -2.02310     3.96330     0.50930
H     -2.74826     4.47486     0.14321
O      1.54615    -0.18717     2.22286
H      0.78804    -0.79755     2.38861
O      2.33734    -0.94675     1.31168
H      3.00652    -1.32353     1.88971
O     -1.53000    -0.51700    -0.61228
H     -2.06648    -0.74791     0.16755
O     -2.38088     0.27342    -1.42835
H     -2.14659     1.16763    -1.13657
