 40
-1516.6434128845237
O      2.93424     3.45742    -0.22466
H      2.43888     3.27633    -1.03961
O      2.90456     2.16768     0.39152
H      2.24450     2.27976     1.10291
O     -0.99311    -1.25060    -1.09375
H     -0.41207    -1.99362    -0.83264
O     -0.45378    -0.81625    -2.32965
H     -0.68241     0.12686    -2.29503
O     -2.40383     0.80207     0.83502
H     -2.75008     1.24262     0.03216
O     -2.84804    -0.54199     0.67226
H     -2.25854    -0.86193    -0.03738
O      0.23753     1.28199     0.75080
H     -0.67896     1.01523     0.97995
O      0.80447     1.65680     2.00227
H      0.93649     0.75886     2.35946
O     -2.87251     1.84032    -1.60095
H     -3.68785     1.97006    -2.09424
O     -2.33945     3.16622    -1.52952
H     -1.43162     2.98369    -1.82584
O      0.09679     2.04876    -1.77481
H      0.24010     1.86783    -0.81993
O      1.39825     2.40585    -2.23210
H      1.81458     1.51914    -2.25145
O      2.33286    -0.28837    -0.50042
H      2.64030     0.60595    -0.24364
O      2.13190    -0.12711    -1.90193
H      1.27339    -0.56265    -2.04682
O      0.64899    -0.92560     2.45446
H     -0.17770    -1.45820     2.48778
O      1.53683    -1.73427     1.69948
H      1.78004    -1.16164     0.94747
O      0.34160    -3.92034     0.90156
H      0.90027    -3.23975     1.33837
O      0.39826    -3.43299    -0.43202
H      0.84678    -4.14393    -0.90021
O     -1.72881    -2.11927     2.53597
H     -2.33027    -1.50299     2.06971
O     -2.12698    -3.36999     1.97144
H     -1.28171    -3.67649     1.61189
