 32
-1213.3183861573823
O      0.52565     0.87929     0.83447
H      0.60007     1.06609    -0.12139
O      1.79910     0.27133     1.09855
H      1.72518    -0.58532     0.62835
O     -2.01400    -1.03051    -0.63481
H     -1.17217    -1.52304    -0.56657
O     -1.74369    -0.11897    -1.69698
H     -2.11429     0.72165    -1.34599
O      3.66859     1.33837    -1.35335
H      4.47731     1.77789    -1.63497
O      3.34342     2.07106    -0.16729
H      2.90002     1.37487     0.35745
O     -1.23121     3.04163    -0.64466
H     -0.67472     2.58093    -1.28369
O     -2.38360     2.20351    -0.62589
H     -2.48099     2.00273     0.31679
O      1.06829     1.22718    -1.73696
H      2.04728     1.31503    -1.79015
O      0.82799    -0.05285    -2.32574
H     -0.14248    -0.11426    -2.19598
O      1.56012    -1.90583    -0.49998
H      1.41226    -1.39999    -1.32011
O      0.23659    -2.39802    -0.27645
H      0.26083    -2.68022     0.66524
O     -0.11451    -2.95352     2.29410
H     -0.18246    -3.72978     2.85731
O     -1.48974    -2.68170     2.00960
H     -1.53855    -1.73247     2.26606
O     -2.66229     0.33068     1.54402
H     -2.59501    -0.27726     0.78427
O     -1.50534    -0.05230     2.28112
H     -0.76888     0.32580     1.75338
