 36
-1364.97287389645
O      3.32481     1.18349     0.11993
H      3.96106     1.84556     0.40575
O      3.86557    -0.00803     0.69235
H      3.26328    -0.14836     1.45237
O     -3.19485    -0.10928    -0.75749
H     -2.92241     0.79568    -1.00318
O     -3.87534     0.10942     0.48146
H     -3.23264    -0.24421     1.10949
O     -2.01989    -2.59982    -1.70976
H     -2.72614    -2.00254    -1.42267
O     -0.89261    -1.88957    -1.21526
H     -0.67596    -1.21074    -1.90185
O      0.80774     0.42618    -1.49565
H      1.50763    -0.24387    -1.56443
O     -0.00645     0.15548    -2.64030
H     -0.49935     0.99082    -2.68855
O     -0.59712    -0.62457     1.07586
H     -0.90393    -1.20614     0.34357
O     -1.36639    -1.08542     2.19580
H     -0.80508    -0.71446     2.89526
O      0.86480     2.19141     1.37049
H      1.47375     1.86106     0.69261
O     -0.40038     1.98962     0.75047
H     -0.50956     1.01252     0.82688
O     -2.21360     2.36300    -1.27468
H     -1.53427     2.47256    -0.58099
O     -1.42577     2.44120    -2.45877
H     -1.98002     2.99123    -3.01766
O      1.94482    -0.63302     2.46870
H      1.40711    -1.17996     1.86869
O      0.96500     0.15513     3.14550
H      0.94990     0.97476     2.61072
O      2.47588    -1.93958    -0.93398
H      3.17091    -1.53892    -0.39468
O      1.60973    -2.43230     0.09674
H      0.81872    -2.62483    -0.42462
