 40
-1516.6475987400415
O      1.60639     1.32024    -1.36499
H      2.28199     0.65438    -1.16431
O      2.37948     2.49066    -1.64735
H      2.06453     3.06762    -0.93746
O      1.07611     0.09708     1.35479
H      0.89970     1.02712     1.08055
O      0.25243    -0.02105     2.51830
H     -0.62195    -0.11218     2.08879
O      1.94965    -2.02482    -1.77962
H      2.20715    -2.33613    -2.65371
O      3.08760    -1.27578    -1.36609
H      3.21876    -1.65338    -0.47894
O     -1.07804    -1.30791    -2.43004
H     -1.27268    -0.35623    -2.46807
O     -0.55038    -1.36540    -1.10470
H      0.39330    -1.60244    -1.25411
O     -1.26696     1.42408    -2.07721
H     -0.31009     1.50706    -1.93221
O     -1.71664     2.72761    -1.71124
H     -2.39835     2.50680    -1.05253
O      0.20925     3.64576     0.00695
H     -0.43248     3.39722    -0.68723
O      0.09798     2.53393     0.89757
H     -0.80342     2.63460     1.25631
O     -2.51344     2.73397     1.56627
H     -3.18920     3.33713     1.89037
O     -3.20326     2.04659     0.51579
H     -2.87304     1.13809     0.68134
O     -1.79568    -0.16661     0.84682
H     -1.31481    -0.46896     0.03969
O     -2.48673    -1.35189     1.22117
H     -1.72311    -1.95347     1.35635
O      2.92394    -1.82414     1.30431
H      2.20011    -1.17107     1.45938
O      2.25859    -3.06625     1.50614
H      2.69629    -3.41012     2.29070
O     -0.64738    -3.95035     0.31289
H     -0.99459    -3.35558    -0.36587
O     -0.41373    -3.01470     1.36426
H      0.56248    -2.94111     1.38539
