 24
-909.9743622470991
O     -2.53232    -2.35034     0.18941
H     -2.53754    -1.48263     0.62094
O     -1.37081    -2.90402     0.80810
H     -1.68706    -3.76564     1.09453
O      1.22175    -1.45246    -0.46716
H      1.69360    -0.94900    -1.14769
O     -0.06184    -1.57318    -1.10164
H     -0.48904    -2.24484    -0.53845
O      2.61373     1.95562    -1.33148
H      3.20926     2.26572    -2.01891
O      2.00365     0.84148    -1.98481
H      1.06905     1.13080    -1.99705
O     -0.61140     1.23072    -1.61289
H     -0.85624     0.33961    -1.31279
O     -0.75646     2.03618    -0.44187
H      0.05628     1.85047     0.05376
O     -1.73789     0.64506     2.29432
H     -0.79871     0.51008     2.10173
O     -2.32787     0.43716     1.00816
H     -2.01497     1.21747     0.51212
O      2.50047     0.74184     1.48495
H      2.76706     1.07419     0.61742
O      1.09877     0.56124     1.28176
H      1.06191    -0.28916     0.79166
