 20
-758.3081428084967
O     -0.85108    -2.50521    -1.14453
H     -0.12468    -2.53485    -0.49541
O     -1.69621    -1.57624    -0.46019
H     -2.50199    -2.08295    -0.32383
O      2.32869    -0.25280    -0.92441
H      3.09778    -0.47937    -1.45474
O      2.80937     0.88092    -0.18720
H      2.03180     1.46538    -0.26063
O      0.45627     2.23253    -0.09653
H     -0.27107     1.90614    -0.66873
O     -0.08995     1.92665     1.19538
H      0.25417     1.03599     1.35472
O      0.97162    -1.88649     0.76579
H      1.56105    -1.27830     0.28324
O      0.24231    -0.99622     1.61595
H     -0.64312    -1.07511     1.23425
O     -1.73426     1.07303    -0.95286
H     -1.68433     0.10484    -0.95983
O     -2.49753     1.28253     0.24512
H     -1.80279     1.67534     0.80162
