 32
-1213.3129390291392
O      0.81135    -1.15639     0.42495
H     -0.05970    -1.55792     0.22323
O      0.84063    -1.13808     1.85679
H      0.99852    -0.19030     2.01779
O     -1.62838    -2.17531    -0.03967
H     -2.13136    -2.14922     0.79263
O     -2.44188    -1.45353    -0.96872
H     -2.48046    -0.56982    -0.54452
O      2.09939     0.59391    -3.17985
H      2.53180     0.58404    -2.30116
O      2.33104    -0.73761    -3.65035
H      1.47947    -1.13714    -3.42736
O     -0.29938    -0.81790    -2.54343
H     -1.15619    -1.11960    -2.19593
O     -0.45294     0.61309    -2.47245
H      0.43767     0.86805    -2.80215
O      2.67749     0.48920    -0.57621
H      1.97706    -0.10062    -0.22753
O      2.03340     1.75977    -0.51302
H      2.66482     2.25881     0.01443
O     -2.17455     0.83621     0.36654
H     -2.06253     0.55251     1.29125
O     -0.89979     1.39820     0.04787
H     -0.73747     1.09799    -0.88227
O      0.76273     1.54294     2.07300
H      0.13877     1.64456     1.31366
O     -0.07500     1.91165     3.15762
H      0.29259     2.76590     3.39847
O     -2.03315    -0.28491     2.80108
H     -1.38227     0.13549     3.37898
O     -1.62113    -1.65208     2.76620
H     -0.67629    -1.57284     2.51066
