 20
-758.3020562791828
O     -0.48012    -1.24075     1.90477
H     -1.29745    -1.08628     1.40546
O      0.08193    -2.39852     1.28880
H      0.56740    -2.00877     0.54429
O      2.46307    -0.33494    -0.90018
H      2.22643     0.27589    -0.18983
O      1.20108    -0.99136    -1.07358
H      0.85362    -0.57584    -1.88703
O      0.94279     0.90566     1.33941
H      0.56185     0.07598     1.71107
O      0.74966     1.81656     2.42247
H      1.65752     1.95888     2.70399
O     -1.53669     1.34363    -0.15738
H     -0.62654     1.19386     0.14946
O     -2.30670     0.56014     0.75898
H     -2.32890     1.12400     1.53832
O     -0.00833     0.39997    -3.01916
H     -0.06528     0.27810    -3.97178
O     -1.18978    -0.26629    -2.56921
H     -1.45600     0.33700    -1.86340
