 36
-1364.9752350022256
O     -1.40958     1.82288    -0.50427
H     -1.82484     1.05255    -0.94227
O     -2.43127     2.81836    -0.50101
H     -2.34220     3.11498     0.41317
O     -0.27996    -1.92731     0.59897
H     -0.56019    -1.21096     1.22556
O      0.57728    -2.75103     1.39652
H      1.41143    -2.27219     1.26659
O      1.53781     0.18138     0.22384
H      2.07103     0.87043    -0.20617
O      2.39868    -0.96362     0.26147
H      2.10611    -1.44469    -0.54705
O      1.63283    -2.64789    -1.65219
H      0.95991    -3.34797    -1.62390
O      1.44425    -2.07424    -2.94886
H      0.72553    -1.43950    -2.77609
O      1.39306     2.78212    -0.94556
H      0.44638     2.56402    -0.92974
O      1.50143     3.52828     0.25754
H      1.76776     4.39919    -0.05351
O     -0.58682     3.08396     1.87743
H      0.19333     3.29932     1.33564
O     -0.04538     3.16097     3.20050
H      0.13541     2.21842     3.34867
O     -0.43102    -0.38245    -1.91323
H     -0.04276    -0.44587    -1.02248
O     -1.79983    -0.60659    -1.60769
H     -1.87025    -1.58074    -1.70415
O     -0.82077     0.23818     2.03353
H     -0.99533     1.04752     1.51483
O      0.45151     0.56845     2.62210
H      1.02678     0.48533     1.83510
O     -2.03831    -3.30418    -1.78330
H     -2.75403    -3.84854    -1.44259
O     -0.90245    -3.82472    -1.08813
H     -0.80358    -3.16231    -0.36711
