 40
-1516.6404504132029
O      1.47811     4.21580    -1.02471
H      0.78037     3.75565    -0.53453
O      2.60199     3.37959    -0.76914
H      2.45930     2.63853    -1.39135
O      0.50197    -0.68704     1.24879
H      1.20056    -0.00725     1.11945
O      0.37481    -0.71806     2.67174
H     -0.59964    -0.76752     2.74284
O      1.56313     1.29551    -2.17411
H      0.64173     1.44610    -1.90503
O      1.86409     0.06136    -1.51623
H      1.59751    -0.61361    -2.16169
O     -2.23817     0.90436    -0.98698
H     -2.63811     0.35491    -0.28400
O     -1.00182     0.26680    -1.25223
H     -0.72706    -0.12427    -0.39367
O     -0.75946     1.98232     1.73513
H      0.16964     2.06564     2.00608
O     -0.70309     2.61523     0.44342
H     -1.38900     2.12549    -0.04726
O      2.50721     1.06588     1.30677
H      3.32306     0.99318     1.81205
O      2.05329     2.38434     1.61990
H      2.34052     2.86969     0.80521
O     -2.31070    -0.94335     2.38761
H     -2.28063    -1.56346     1.63656
O     -2.76822     0.24573     1.72919
H     -2.03552     0.86616     1.91255
O     -2.60408    -2.91398    -0.73288
H     -2.38224    -2.60242    -1.62930
O     -1.74324    -2.05721     0.03015
H     -0.93078    -2.59907     0.08292
O      1.54107    -3.06785     0.63099
H      1.19912    -2.22209     1.00084
O      0.33485    -3.66796     0.14152
H      0.26981    -4.48077     0.65595
O      0.10957    -2.31782    -2.78286
H      0.08192    -2.98567    -2.08361
O     -1.24309    -1.86622    -2.85172
H     -1.17014    -0.98660    -2.43672
