 20
-758.3113549178125
O     -1.09388    -1.95146    -0.76361
H     -0.16960    -2.12331    -0.51281
O     -1.62492    -1.66902     0.54832
H     -2.04992    -0.80931     0.35829
O      1.37583     0.90349    -1.70251
H      1.14352     1.50325    -0.97631
O      2.37865     0.12360    -1.05347
H      3.09399     0.13122    -1.69755
O     -0.39755     1.96419     1.49222
H     -0.24221     2.83036     1.88038
O      0.92183     1.59624     1.08517
H      0.96690     0.67462     1.41124
O      1.25236    -1.77133     0.47968
H      1.68521    -1.05831    -0.02237
O      0.73065    -1.04649     1.60641
H     -0.21720    -1.27469     1.50790
O     -1.68742     0.93660    -1.51872
H     -1.36538     0.03352    -1.67407
O     -2.20549     0.81765    -0.19179
H     -1.55903     1.32614     0.32516
