 32
-1213.3093952206414
O      1.62434     1.35128    -0.62848
H      2.32989     1.46298    -1.27454
O      1.18584     2.68891    -0.37676
H      0.91659     2.58949     0.55092
O     -0.24988    -2.35001    -1.60797
H     -1.14989    -2.18472    -1.94550
O     -0.40385    -2.20221    -0.19854
H     -0.81902    -1.32140    -0.09292
O     -2.51231    -0.31632    -3.10820
H     -1.54491    -0.15381    -3.17347
O     -2.55767    -1.71042    -2.81778
H     -2.80776    -2.08745    -3.66676
O      1.66734    -0.48731     3.90615
H      1.58309    -0.51579     2.92139
O      0.33235    -0.10441     4.26163
H     -0.05253    -0.93521     4.55805
O      1.14636    -0.46502    -2.91245
H      0.79158    -1.24236    -2.43820
O      0.02082     0.41991    -2.88483
H      0.08018     0.82117    -2.00132
O      2.01373    -1.54151     0.77723
H      1.25793    -2.03207     0.40094
O      1.30325    -0.41590     1.30682
H      1.44379     0.25345     0.60163
O     -0.63478     1.52681     2.40604
H     -0.22944     0.97005     3.11254
O      0.35617     2.52944     2.24248
H     -0.08120     3.28397     2.64304
O     -1.53936     0.16387     0.27790
H     -1.22087     0.67058     1.05433
O     -1.68724     1.18970    -0.70111
H     -2.32868     0.77601    -1.29502
