 36
-1364.9746842772158
O      1.41466     2.61737    -1.07484
H      1.43454     2.56756    -0.09969
O      2.47833     1.72059    -1.40190
H      2.00579     0.93400    -1.71662
O     -1.49206    -3.36282     0.20675
H     -2.08970    -4.09823     0.37921
O     -1.31878    -3.42954    -1.20734
H     -1.87754    -2.67483    -1.49276
O      3.43657     0.71317     0.90467
H      3.16778     1.07348     0.03771
O      2.91025    -0.61062     0.81864
H      2.13285    -0.57012     1.41232
O      0.60504    -2.04841     2.05639
H      1.20679    -2.47609     2.67087
O      0.77202    -0.68121     2.41624
H     -0.07923    -0.29815     2.10557
O     -2.43897     2.09669    -1.47938
H     -2.33705     1.24655    -1.95459
O     -1.34166     1.99570    -0.58192
H     -0.56141     2.11773    -1.14812
O     -2.60403    -1.09580    -1.66205
H     -2.64827    -0.74869    -0.74914
O     -1.59068    -0.29354    -2.26314
H     -0.76875    -0.60310    -1.83068
O     -0.04881     3.11376     1.83906
H     -0.64107     3.02813     1.07836
O      0.90952     2.12275     1.45789
H      1.47000     2.03031     2.23959
O      0.56944    -1.19573    -0.97745
H      0.39374    -2.14214    -0.82429
O      1.87181    -1.15021    -1.56046
H      2.41250    -1.06017    -0.74420
O     -2.43438    -0.71967     0.98234
H     -1.92732    -1.53854     1.07397
O     -1.47705     0.25239     1.38197
H     -1.48359     0.88640     0.63120
