 36
-1364.9766515407434
O      1.60302     2.80139     0.75048
H      1.45123     1.87783     1.05992
O      3.02081     2.78944     0.55610
H      3.28498     3.51787     1.12660
O     -0.55594     2.69368    -1.64227
H     -0.93464     1.93043    -2.09913
O      0.84839     2.44062    -1.80377
H      1.18423     2.76526    -0.94230
O     -0.67910    -2.90896     2.56346
H     -0.39284    -3.43007     1.78898
O      0.52805    -2.15139     2.75089
H      0.20882    -1.23463     2.66313
O     -1.95454     0.16586    -2.32150
H     -2.76666     0.26714    -2.82830
O     -1.14521    -0.63747    -3.19398
H     -0.31368    -0.64558    -2.66780
O     -1.46911     2.21065     0.84498
H     -1.12701     2.61612     0.02549
O     -2.66966     1.59562     0.36169
H     -2.72674     0.81447     0.92925
O     -2.20723    -1.19406     0.98565
H     -1.74649    -1.79777     1.59934
O     -1.25913    -1.17238    -0.09332
H     -1.71002    -0.65531    -0.79303
O      2.02855    -1.29740    -2.03457
H      2.08040    -1.85083    -1.23745
O      0.97788    -0.40982    -1.63000
H      1.40168     0.46655    -1.64781
O     -0.13978     0.36606     2.16385
H     -0.66864     1.09867     1.76413
O      0.92747     0.29923     1.21857
H      0.49750    -0.13950     0.46145
O      0.40954    -3.21656     0.16385
H     -0.09909    -2.44686    -0.14763
O      1.71205    -2.65120     0.39146
H      1.63047    -2.42278     1.33682
