 20
-758.2986925790044
O      0.04929    -1.85734     2.47296
H     -0.36248    -2.61292     2.90240
O      1.14802    -2.48075     1.79800
H      1.80047    -1.75799     1.83827
O      2.66043    -0.21191     0.21079
H      1.72808     0.04533     0.25952
O      2.92367    -0.45836     1.60262
H      3.87899    -0.56227     1.58739
O     -0.30805    -0.38410     0.27838
H     -0.32116    -0.95716     1.07407
O     -0.63280     0.89746     0.84516
H     -1.44018     1.11724     0.34316
O      0.27789     0.47280    -2.94263
H      0.17583     0.04617    -3.79806
O     -0.93443     0.07173    -2.30252
H     -0.59298    -0.22998    -1.43858
O     -2.43021     2.25084    -1.67442
H     -1.90222     1.49151    -1.98394
O     -2.88797     1.71225    -0.42080
H     -3.32012     2.48466    -0.04589
