 32
-1213.306370679753
O     -0.68712     2.25500    -0.30304
H     -0.99670     2.44437     0.61161
O     -1.28926     0.97113    -0.50214
H     -1.19404     0.83073    -1.47193
O     -0.12213    -3.02947    -0.63072
H      0.68047    -2.50265    -0.51205
O     -1.13236    -2.02197    -0.64148
H     -1.03940    -1.64913    -1.54136
O     -0.14543    -0.71406    -2.77620
H      0.68096    -0.33806    -2.40058
O     -0.88084     0.46737    -3.09132
H     -0.29708     0.93048    -3.70279
O     -1.78584    -1.70765     1.93617
H     -1.71003    -2.03531     1.01732
O     -2.66954    -0.59686     1.82443
H     -2.34182    -0.13202     1.04164
O      1.92378     0.64979    -1.89559
H      2.67561     0.51423    -1.29425
O      1.81512     2.06473    -2.04660
H      1.15795     2.27552    -1.36557
O      2.71679    -2.08108    -0.38648
H      3.13564    -2.74865     0.16554
O      3.16509    -0.87430     0.22261
H      2.33323    -0.57088     0.64209
O      0.35579    -0.14884     2.25974
H     -0.38899    -0.79889     2.20981
O      0.73271    -0.02276     0.87909
H     -0.06884     0.33628     0.43647
O     -0.43578     2.35623     2.97402
H     -0.14418     1.44624     2.76018
O     -1.60407     2.46055     2.15984
H     -2.31997     2.35318     2.79410
