 40
-1516.643932078634
O      2.29070     1.10584     0.62500
H      2.36185     0.26261     1.13525
O      3.08620     2.01693     1.35349
H      2.47377     2.25620     2.06191
O     -0.57472    -0.05941    -3.79057
H     -1.28959    -0.33165    -3.18380
O      0.03233     1.02050    -3.08592
H     -0.72786     1.59346    -2.88553
O     -0.19495     1.47725     3.43556
H     -0.29986     1.84632     2.52878
O      1.14315     1.86049     3.74965
H      1.00161     2.44092     4.50330
O      1.09324    -0.65461    -1.35096
H      0.78431    -0.02784    -2.06098
O      2.50840    -0.73269    -1.51979
H      2.75713     0.09096    -1.07902
O     -1.12498     1.15321     0.24903
H     -1.09227     0.31765     0.77530
O     -0.17510     2.02939     0.85026
H      0.68773     1.65336     0.55842
O     -0.09011    -1.16004     2.82106
H     -0.18840    -0.27729     3.22671
O     -1.07273    -1.08422     1.78437
H     -0.89963    -1.93303     1.31631
O     -3.51182     1.87387    -1.85515
H     -3.88879     2.51274    -2.46490
O     -2.13417     2.20975    -1.93141
H     -1.83287     1.86402    -1.06359
O     -0.32042    -2.90789    -1.02615
H      0.19563    -2.08207    -1.13659
O     -0.19242    -3.16496     0.37166
H      0.77708    -3.16137     0.49868
O      2.33392    -1.33401     1.69909
H      1.44827    -1.44581     2.11326
O      2.33705    -2.34473     0.68185
H      2.48499    -1.82282    -0.12584
O     -2.72609    -0.65043    -2.27315
H     -3.19505     0.18551    -2.10376
O     -2.61252    -1.16766    -0.94624
H     -2.26984    -2.05584    -1.12143
