 32
-1213.308836815028
O      1.97340     1.94766     1.06775
H      2.40228     1.08877     0.88006
O      1.76582     2.46068    -0.25587
H      0.90082     2.88788    -0.11123
O     -1.34663    -2.85913    -0.82435
H     -1.17796    -3.54083    -1.48328
O     -2.56347    -2.27536    -1.28205
H     -2.22720    -1.44781    -1.69236
O     -1.54769     0.08710    -2.05506
H     -0.56585     0.07922    -1.94166
O     -1.96819     1.01466    -1.04718
H     -2.24726     0.40097    -0.33859
O     -0.73013     2.76072     0.57210
H     -1.18701     2.17167    -0.06068
O     -0.59923     1.89719     1.71093
H      0.36980     1.75728     1.70558
O      1.02633     0.18893    -1.49955
H      1.34123     1.07759    -1.22163
O      2.01858    -0.18809    -2.45505
H      2.64028    -0.61094    -1.84851
O      3.53929    -1.12159    -0.38140
H      4.45247    -0.87781    -0.21428
O      2.90237    -0.53119     0.74597
H      2.05776    -1.03542     0.74741
O      0.01437    -1.86404     2.11844
H     -0.58613    -1.10715     2.15433
O      0.52596    -1.69572     0.79630
H     -0.17239    -2.10034     0.24222
O     -2.95408     0.54387     1.82770
H     -2.19124     1.14998     1.88023
O     -2.31394    -0.50673     1.09606
H     -2.90498    -1.26409     1.19796
