 40
-1516.6344644299736
O      0.74095    -1.20250    -1.77037
H      0.12700    -0.42966    -1.65931
O      1.82733    -0.85421    -0.90384
H      1.83660    -1.58949    -0.26097
O     -2.40659     1.95891     1.43829
H     -2.56623     1.01049     1.56609
O     -1.03405     1.90339     1.02898
H     -0.62234     2.64491     1.50588
O      2.05498     0.85487     1.59896
H      1.71974     0.63302     0.70865
O      1.14343     0.21733     2.48367
H      0.28093     0.33764     2.04753
O     -0.98488    -0.89074     0.84406
H     -0.74653    -1.76742     1.18518
O     -2.36276    -0.75239     1.20457
H     -2.78543    -0.83169     0.32041
O      0.69763     3.91888     1.98601
H      0.65066     4.84788     1.74787
O      1.88762     3.52595     1.29217
H      2.01372     2.63538     1.66524
O     -0.89626     0.83757    -1.41959
H     -0.94445     1.28601    -0.54374
O     -0.62452     1.91663    -2.30886
H      0.33346     2.00615    -2.14941
O     -3.25046    -0.70988    -1.32565
H     -2.80638     0.11288    -1.58063
O     -2.53388    -1.64595    -2.14519
H     -2.12909    -2.21783    -1.47310
O     -0.02175    -3.64210    -1.13135
H      0.14148    -2.73110    -1.47115
O     -1.35243    -3.51239    -0.63317
H     -1.74222    -4.35060    -0.90293
O      0.95933    -2.67569     2.00747
H      1.32494    -1.83964     2.33131
O      1.79511    -2.90868     0.87243
H      1.25463    -3.53864     0.37246
O      2.76173     1.65769    -2.06311
H      2.77663     0.69484    -1.97159
O      1.71641     1.92953    -1.12551
H      2.04632     2.67970    -0.60612
