 24
-909.9772350501279
O     -1.22255    -1.84355     0.69102
H     -0.76619    -1.22121     1.31031
O     -0.63081    -3.09803     0.99928
H     -1.31494    -3.48778     1.54800
O     -1.33248    -1.35278    -1.92337
H     -1.37420    -1.49422    -0.95636
O      0.05520    -1.59394    -2.15717
H      0.08549    -2.54831    -2.29330
O      1.62647    -0.39016    -0.35118
H      0.99507    -0.78167    -0.99046
O      1.95996     0.85180    -0.97429
H      1.84304     1.46722    -0.22961
O     -0.75921     1.47926    -1.24673
H      0.04582     1.35124    -1.77339
O     -1.80758     1.34273    -2.20648
H     -1.87693     0.37680    -2.22996
O     -0.13435    -0.03720     2.33054
H     -0.36321     0.88020     2.07122
O      1.29391     0.03980     2.25586
H      1.44442    -0.25772     1.33739
O      1.30557     2.49558     1.15111
H      1.55916     1.85933     1.84093
O     -0.11750     2.34585     1.22082
H     -0.34562     2.11737     0.29947
