 36
-1364.9756530622624
O      2.33176     2.46356    -0.87046
H      2.82239     2.03075    -0.15015
O      2.88971     1.83720    -2.02454
H      2.46876     0.95941    -1.98485
O     -1.64141    -1.18467    -2.85312
H     -2.00755    -1.85216    -3.44096
O     -0.63503    -1.91065    -2.15331
H     -1.05888    -2.03391    -1.27167
O      3.79378     1.13037     0.98161
H      4.69945     1.00707     0.67763
O      3.43185    -0.19056     1.37860
H      2.85554    -0.48336     0.63601
O     -0.22977     1.93235    -1.05637
H      0.70954     2.24138    -1.11823
O     -0.10939     1.18112     0.16706
H     -0.96222     0.71861     0.16343
O     -2.89867     1.72431    -1.54247
H     -1.99484     2.07204    -1.50354
O     -2.65851     0.43418    -0.96493
H     -2.35602    -0.09402    -1.72918
O     -2.48417     0.51152     2.40446
H     -2.95322     0.76620     3.20381
O     -3.46184    -0.27211     1.73186
H     -3.50688     0.20979     0.89308
O      1.70816    -0.62194    -1.76777
H      0.88228    -1.00628    -2.11951
O      1.50488    -0.85183    -0.36790
H      0.89055    -0.11546    -0.12155
O      1.08922    -0.39872     3.40132
H      1.85305    -0.26467     2.82570
O      0.11164    -0.79476     2.43787
H     -0.60871    -0.16210     2.58554
O     -0.87805    -2.99347     0.94757
H     -0.21841    -2.41035     1.35502
O     -1.68738    -2.03395     0.26653
H     -2.36803    -1.79951     0.92146
