 32
-1213.3059763230146
O      2.75874     1.44236    -1.83981
H      2.14540     1.92813    -1.27201
O      2.64693     0.11877    -1.32064
H      1.88116    -0.26053    -1.78267
O     -3.14729    -1.01818    -0.92030
H     -3.97808    -1.49078    -0.79383
O     -3.06335    -0.24720     0.28097
H     -2.32300    -0.68981     0.73015
O      0.68117    -3.11900    -0.63011
H      0.21384    -2.28427    -0.83776
O      1.11916    -2.88276     0.71165
H      1.89789    -2.31422     0.60953
O      2.75639     0.60380     1.30011
H      2.88896     0.40880     0.34939
O      2.58450    -0.71349     1.82699
H      1.72501    -0.64134     2.28011
O      0.28128     1.65038    -0.00290
H     -0.56513     2.10871    -0.19998
O      0.44345     1.89741     1.39871
H      1.36845     1.58716     1.49169
O     -0.24640    -0.67291    -1.10712
H     -0.02698     0.14657    -0.59993
O     -0.74888    -0.13587    -2.33145
H     -1.69462    -0.26446    -2.17964
O     -0.73710    -1.34586     1.81363
H     -0.07854    -1.99450     1.47098
O      0.04763    -0.59760     2.75046
H     -0.17999     0.30934     2.49944
O     -2.57035     2.45889    -1.75705
H     -3.04813     3.29310    -1.74842
O     -2.28230     2.30706    -0.37126
H     -2.74501     1.47496    -0.15970
