 24
-909.9736229246816
O     -2.13629    -1.00295     0.11121
H     -1.37562    -0.57531     0.54943
O     -2.25510    -0.28069    -1.11838
H     -1.67023    -0.78496    -1.70350
O      0.71451    -2.08334    -0.70679
H      0.95671    -1.23194    -1.11817
O     -0.44174    -2.42787    -1.47483
H     -1.05721    -2.62664    -0.75962
O      2.59221    -0.34689     1.48550
H      2.93559     0.06465     0.67685
O      2.89568    -1.73035     1.32181
H      2.11614    -2.04580     0.84048
O     -0.00546     0.09770     1.44831
H      0.94982    -0.09326     1.58117
O      0.09183     1.44290     0.94286
H     -0.82177     1.76942     1.08565
O      1.47583     0.23450    -1.75476
H      1.59569     0.65308    -2.61146
O      2.05183     1.18245    -0.85943
H      1.28163     1.39794    -0.29558
O     -2.42903     2.26810     1.06840
H     -2.92840     3.05147     1.31419
O     -2.35391     2.40138    -0.35296
H     -2.47769     1.47137    -0.60276
