 40
-1516.6405310779162
O      3.46560    -1.02541     0.44181
H      2.82215    -0.97981    -0.27846
O      3.31295     0.26061     1.04930
H      2.60607     0.10945     1.70712
O      0.38138     1.43187     2.10566
H      1.09341     1.97813     1.71331
O      1.08794     0.29163     2.60886
H      0.41757    -0.39551     2.47065
O      1.93204     2.96916     0.50915
H      1.18666     3.41778     0.06044
O      2.40475     2.13168    -0.55704
H      2.86742     1.42752    -0.03793
O     -1.44537    -0.64703     1.75356
H     -2.06380    -1.32836     1.44982
O     -1.49913     0.27280     0.65097
H     -0.88740     0.96789     0.97346
O     -3.12388    -2.59875     0.87666
H     -4.00924    -2.97317     0.89120
O     -2.62736    -3.08706    -0.36368
H     -1.78746    -3.49220    -0.06703
O      0.73127     1.18815    -2.40586
H      1.25693     1.65216    -1.71520
O     -0.48055     1.93669    -2.47964
H     -1.16560     1.24013    -2.40902
O     -1.31494     3.32541     0.31648
H     -1.66807     4.14253     0.67927
O     -0.35922     3.83194    -0.61866
H     -0.51648     3.23162    -1.37967
O      1.29360    -1.38131    -1.88304
H      1.07005    -0.51539    -2.27443
O      0.75875    -1.23780    -0.56925
H     -0.07641    -0.74650    -0.69997
O      0.02089    -3.33892     1.85264
H      0.73912    -3.93710     2.08135
O     -0.09329    -3.56191     0.44956
H      0.33113    -2.75425     0.07112
O     -2.40453     0.09447    -1.79141
H     -2.27911     0.24188    -0.83283
O     -1.66401    -1.12058    -1.98259
H     -2.18015    -1.77101    -1.47489
