 24
-909.976576135179
O     -2.26354    -0.18107    -1.18320
H     -2.50020     0.51624    -0.54040
O     -2.64477    -1.35897    -0.47373
H     -2.07408    -1.29280     0.30596
O      1.03361    -2.47203    -0.40342
H      0.66768    -1.86761     0.25771
O      1.93763    -1.62654    -1.10995
H      1.32262    -1.11758    -1.68175
O      2.95209     0.06311     0.64728
H      2.65715    -0.66930     0.05016
O      2.94971     1.14397    -0.28666
H      3.85773     1.15669    -0.60690
O     -2.88884     1.37268     0.91306
H     -3.68769     1.20530     1.42833
O     -2.05400     2.08291     1.82967
H     -1.41059     1.39724     2.06714
O      0.53404     0.40997     2.12881
H      1.41933     0.38100     1.72788
O     -0.26192    -0.26355     1.15860
H     -0.16924     0.32871     0.37978
O      0.40490     1.08891    -1.03273
H      1.37989     1.10683    -0.93978
O      0.21297     0.13792    -2.09068
H     -0.71869    -0.11111    -1.90398
