 36
-1364.9765586017636
O      1.20353     0.59932    -2.02686
H      1.70592     1.43721    -1.97653
O     -0.13193     1.10049    -2.15844
H     -0.37387     1.22827    -1.21441
O     -1.08891     0.09504    -4.47407
H     -0.74915     0.45770    -3.63208
O     -2.13558    -0.74865    -3.96539
H     -2.15529    -1.43628    -4.63754
O     -0.10335    -0.36798     3.56956
H     -1.05915    -0.46368     3.38567
O      0.20454     0.80101     2.80245
H      1.15384     0.64222     2.61252
O      2.77306     0.43062     2.12554
H      3.29622    -0.36510     2.26488
O      2.65995     0.48048     0.70393
H      1.99596    -0.22999     0.55434
O     -2.74994    -1.94675     2.15952
H     -3.63568    -2.18221     2.44945
O     -2.64537    -0.60921     2.64867
H     -2.60413    -0.10729     1.80301
O     -0.89111     1.23375     0.37926
H     -0.54594     1.00028     1.27267
O     -2.11500     0.50270     0.28770
H     -1.86247    -0.21745    -0.33326
O      1.81443     2.82686    -0.25707
H      2.17468     2.03427     0.18142
O      2.63016     2.80992    -1.43280
H      2.52526     3.71311    -1.74354
O     -1.42890    -1.38078    -1.47473
H     -1.75041    -1.19567    -2.38308
O     -0.10145    -1.82613    -1.74603
H      0.36665    -0.99046    -1.91452
O      1.04641    -1.53721     0.83608
H      0.38371    -2.01259     0.30506
O      1.13069    -2.27832     2.05892
H      0.66819    -1.66537     2.66383
