 12
-454.96489383070247
O      1.54675     1.37531    -1.18350
H      2.29701     1.96184    -1.03939
O      0.54714     1.97576    -0.34401
H      0.48040     1.31259     0.36161
O      0.41877    -1.63044     0.15739
H     -0.22817    -1.54022     0.86602
O      1.41161    -0.70540     0.62656
H      1.72891    -0.37230    -0.22025
O     -2.05543    -0.05787    -0.30625
H     -1.21206    -0.37083    -0.67131
O     -2.06087    -0.72505     0.96619
H     -2.75344    -1.38166     0.83678
