 24
-909.9758979268474
O      0.57969     4.16727    -0.92630
H      1.40817     4.56592    -1.21161
O      1.05092     3.01349    -0.22592
H      0.70592     2.29514    -0.77860
O      1.01835    -3.34143    -0.21479
H      1.75430    -3.90807    -0.46933
O      0.56521    -2.83763    -1.46881
H      0.92414    -1.92255    -1.43104
O      1.29795    -0.31788    -0.98178
H      1.23415    -0.27805    -0.00405
O      0.16575     0.46120    -1.38479
H     -0.58870    -0.07102    -1.05216
O     -1.83179    -0.94044    -0.27023
H     -1.43423    -1.29760     0.54751
O     -2.11591    -2.13742    -0.99422
H     -1.23454    -2.39776    -1.30097
O     -0.07948    -1.69390     1.59774
H      0.45128    -2.27750     1.02240
O      0.71462    -0.50391     1.61658
H      0.01865     0.18630     1.66022
O     -1.07485     1.41132     1.33186
H     -2.01749     1.54976     1.18181
O     -0.66328     2.58981     2.03525
H     -0.09030     2.99019     1.36315
