 36
-1364.9783507181273
O      0.71870     1.22327     0.57122
H      1.31387     0.80080    -0.09287
O      1.47353     1.24957     1.77506
H      1.19827     0.40129     2.16697
O      0.01954    -1.75122    -2.75885
H      0.50685    -0.92872    -2.95970
O     -0.95810    -1.23643    -1.84606
H     -0.84034    -1.79981    -1.05464
O     -0.97796    -0.96256     2.52656
H     -1.20560    -0.02587     2.66026
O      0.38490    -0.94956     2.98306
H      0.71799    -1.68771     2.44169
O      2.85987    -2.40588    -1.61728
H      3.43233    -2.90497    -2.20882
O      1.74363    -3.27765    -1.47035
H      1.07555    -2.81325    -2.03311
O     -1.19634     1.69111     2.71199
H     -0.29199     2.03782     2.74915
O     -2.00594     2.86857     2.77914
H     -2.60765     2.70092     2.03949
O     -2.12973     0.96664    -0.08337
H     -1.47100     1.07106     0.62879
O     -2.81489     2.21830    -0.02030
H     -2.13143     2.81167    -0.39554
O      1.51830     0.47764    -2.66221
H      0.87292     1.16838    -2.40890
O      2.15504     0.18796    -1.41368
H      2.40272    -0.75194    -1.52691
O     -0.60352     2.03335    -1.89711
H     -1.19035     1.39724    -1.43225
O     -0.46039     3.04630    -0.90152
H      0.04000     2.54535    -0.22685
O      0.66926    -2.60955     0.93476
H      1.11934    -3.01102     0.16981
O     -0.69158    -2.62474     0.47410
H     -1.09225    -2.07615     1.17738
