 24
-909.9787449686171
O     -0.02712    -2.78125     0.57374
H     -0.67503    -2.17291     0.15904
O     -0.88495    -3.64803     1.31033
H     -0.66365    -4.50040     0.92269
O     -1.35584    -0.71623    -0.42854
H     -1.72526     0.15834    -0.20965
O     -0.70178    -0.42823    -1.67712
H      0.22751    -0.61041    -1.45294
O      1.79321    -0.95988    -0.80244
H      1.55602    -1.59837    -0.11180
O      2.37203     0.11526    -0.06019
H      1.77223     0.17304     0.71236
O      0.48819     2.23473    -2.53456
H     -0.18318     1.56188    -2.33978
O      1.07764     2.45062    -1.25310
H      1.75230     1.75422    -1.17413
O     -0.50491    -0.60640     2.58345
H     -0.33027    -1.50303     2.27320
O      0.46370     0.12426     1.82790
H     -0.09135     0.84766     1.47192
O     -1.95820     1.88790    -0.10910
H     -2.59162     2.45657     0.33804
O     -0.77003     2.17105     0.62553
H     -0.15095     2.43016    -0.09832
