 32
-1213.3099151864872
O      1.33935    -0.22897     1.56155
H      1.19929     0.73340     1.71543
O      2.73939    -0.28305     1.30408
H      2.77631     0.06166     0.38452
O      0.67029    -1.83485    -0.39179
H      0.91559    -1.34570     0.43157
O     -0.66106    -1.33279    -0.60559
H     -1.19543    -1.90361    -0.00244
O     -0.15272     1.24174    -0.61707
H     -0.51663     0.33655    -0.47660
O     -0.82439     1.68390    -1.79164
H     -0.64764     0.95127    -2.41505
O      0.93509     2.35819     2.03576
H      1.54977     3.09894     1.99688
O     -0.26534     2.90070     1.47453
H     -0.29813     2.40487     0.63078
O      2.42850     0.66897    -1.19185
H      1.50571     0.98190    -1.18957
O      2.37754    -0.50396    -2.00888
H      1.85639    -1.11337    -1.45356
O      0.58847    -0.88244    -4.23392
H      1.34961    -0.49883    -3.77192
O     -0.48927    -0.47406    -3.39472
H     -0.55626    -1.19838    -2.75650
O     -1.56541     0.13561     2.01288
H     -0.92103    -0.29897     2.59109
O     -2.15291     1.13629     2.83840
H     -1.71277     1.92317     2.48334
O     -3.11530    -1.82425     1.09310
H     -2.78235    -1.00682     1.50718
O     -1.94495    -2.63490     1.27670
H     -2.32107    -3.49962     1.46506
