 36
-1364.9793038847217
O      2.38112     1.77334    -0.71034
H      2.54041     2.03443     0.21640
O      2.58210     0.35670    -0.61883
H      1.99693     0.04153    -1.32318
O     -0.47603     1.32259    -0.20429
H     -0.22590     0.41435    -0.46920
O     -0.14054     2.07122    -1.37384
H      0.84225     2.09970    -1.26138
O     -2.27247    -0.29631    -2.66686
H     -3.05899    -0.09656    -2.13407
O     -2.08422     0.88900    -3.43696
H     -1.49815     1.40630    -2.86132
O      0.20446    -2.20645    -1.77134
H     -0.60044    -2.23913    -1.22702
O      0.25360    -0.80316    -2.07554
H     -0.63404    -0.64998    -2.47235
O     -3.40060     0.31506     0.59409
H     -3.77178     0.86729     1.28953
O     -3.12504     1.25497    -0.44544
H     -2.16463     1.42066    -0.31931
O     -1.16681    -2.12842     1.29747
H     -0.71071    -1.43085     1.81785
O     -1.45313    -1.36765     0.11759
H     -2.20012    -0.79419     0.40158
O      1.66457     2.82196     2.63333
H      2.22365     3.38546     3.17680
O      2.64795     2.01648     1.98865
H      2.38000     1.12345     2.29103
O      0.13087    -0.09551     2.33750
H      0.07801     0.65199     1.71549
O      1.52835    -0.39055     2.34233
H      1.62341    -1.09787     1.65607
O      1.18711    -3.53778     1.08582
H      0.27239    -3.25351     1.24768
O      1.73120    -2.34504     0.52701
H      1.36585    -2.34241    -0.38098
