 36
-1364.9732394417372
O      0.42979     2.93756     0.42236
H     -0.51910     2.80374     0.24403
O      0.59768     2.17932     1.62318
H      1.22343     1.48893     1.32870
O     -1.10304    -0.04181     2.05206
H     -0.96593     0.90708     2.21363
O     -1.71994    -0.51976     3.25042
H     -2.01617    -1.38278     2.92858
O      0.49198    -2.34270    -1.21234
H      0.01220    -1.49973    -1.05842
O      0.36106    -3.02089     0.03809
H      0.88871    -2.45250     0.63575
O     -1.66564     0.02126    -1.90069
H     -2.13329    -0.69226    -1.43398
O     -0.53550     0.09779    -1.03040
H      0.13841     0.64744    -1.52344
O      1.35533    -1.08038     1.57675
H      0.47942    -0.68670     1.77489
O      2.07535     0.04114     1.06990
H      2.60625    -0.34689     0.34590
O     -2.14532     2.18100    -0.01248
H     -2.11487     1.69028    -0.85216
O     -2.97649     3.30667    -0.31636
H     -3.71981     3.12919     0.26408
O      2.24340     1.90329    -1.25472
H      1.57337     2.40768    -0.75027
O      1.43836     1.28456    -2.26767
H      2.03827     0.58294    -2.56138
O     -2.65397    -1.57044     0.09155
H     -2.47219    -0.79715     0.64563
O     -2.18424    -2.61696     0.94594
H     -1.34272    -2.88099     0.52293
O      2.81969    -1.27651    -2.10737
H      2.04849    -1.79289    -1.79413
O      3.54074    -1.08314    -0.89389
H      4.29942    -1.66669    -1.00008
