 24
-909.9809063419473
O     -1.97228    -0.00716    -1.20554
H     -1.81320     0.85428    -0.74752
O     -1.07720     0.06615    -2.31024
H     -1.64756     0.37004    -3.02173
O      1.51352    -2.22903     0.31092
H      0.54273    -2.18547     0.43221
O      1.59879    -2.41405    -1.10314
H      2.24265    -3.12557    -1.15598
O      1.15299     0.92407    -1.11988
H      0.39267     0.57940    -1.63776
O      2.27339     0.21710    -1.65278
H      2.10591    -0.68823    -1.34406
O     -2.34593     1.53548     1.26088
H     -1.97384     0.67675     1.53992
O     -1.35526     1.99457     0.34521
H     -0.55399     2.04674     0.90739
O      0.84174     1.85544     1.84895
H      1.66763     2.33384     1.97268
O      1.27850     0.55852     1.44649
H      1.28874     0.66262     0.45597
O     -1.06171    -0.79251     1.84159
H     -0.13558    -0.48826     1.84632
O     -1.06773    -1.68150     0.72140
H     -1.47121    -1.13278     0.02418
