 32
-1213.313552374956
O      2.81302    -2.40841     1.17140
H      2.06491    -1.87773     1.51678
O      3.83837    -1.41751     1.12320
H      4.30276    -1.53918     1.95737
O     -3.32753    -0.31891     1.26978
H     -2.90526    -0.80106     0.52815
O     -3.89498     0.78110     0.54851
H     -4.79625     0.78765     0.88164
O      1.05276    -0.49058    -3.25474
H      1.10508    -1.23814    -3.85526
O      1.18296    -1.15352    -2.00522
H      1.83114    -0.57616    -1.53430
O      2.73999     0.39538    -0.49476
H      3.17884    -0.15815     0.19001
O      1.82837     1.15811     0.29911
H      1.14127     1.41726    -0.35364
O     -0.17043     1.84584    -1.33520
H     -0.87827     2.27681    -0.79117
O     -0.91941     0.90189    -2.10620
H     -0.22301     0.56639    -2.69742
O     -1.95490     2.65197     0.40960
H     -2.69780     2.03989     0.58324
O     -1.00849     2.35025     1.42761
H     -1.08255     1.39010     1.53063
O     -0.39808    -0.47388     2.06029
H     -0.62979    -1.08586     1.33230
O      1.02251    -0.60716     2.09116
H      1.28671     0.16213     1.54413
O     -0.77089    -1.74884    -0.22731
H     -0.07501    -1.58753    -0.89499
O     -1.94766    -1.22021    -0.84656
H     -1.63178    -0.38048    -1.24264
