 32
-1213.3045909479033
O      1.00847     0.08003     2.41393
H      1.42777    -0.72733     2.07524
O      0.67026     0.72307     1.18696
H     -0.29716     0.58612     1.12160
O     -0.97615    -1.19550    -0.99509
H     -0.35088    -1.72600    -1.52910
O     -1.20980    -2.06236     0.12496
H     -1.57655    -1.43389     0.77998
O     -2.14594     1.60815    -1.15663
H     -1.78685     0.71255    -1.24486
O     -1.77480     1.90306     0.19469
H     -1.10771     2.60899     0.08342
O      0.85862     1.11203    -2.00503
H      0.87169     1.84015    -1.36737
O      1.91282     0.27762    -1.54571
H      1.63789     0.04373    -0.63957
O      0.37984     3.42744    -0.03406
H      0.72959     4.29293    -0.26570
O      0.61097     3.36512     1.37621
H      0.82645     2.41757     1.46140
O      2.00942    -2.23832    -2.42623
H      1.93179    -1.26730    -2.31538
O      0.64622    -2.61987    -2.58793
H      0.57418    -2.76671    -3.53646
O      2.02240    -1.86158     0.45124
H      2.20106    -2.35979    -0.36338
O      1.18020    -2.75135     1.19454
H      0.29510    -2.55802     0.82182
O     -2.00666    -0.35053     2.01336
H     -1.79685    -0.23322     2.94640
O     -3.34744     0.13830     1.90297
H     -3.18075     0.90381     1.32994
