 32
-1213.312066821253
O      0.65812    -1.24190     0.76952
H      1.51230    -1.51025     0.39612
O      0.66255    -1.84819     2.06933
H     -0.29772    -1.90558     2.19199
O     -2.87536    -1.70090    -0.72027
H     -3.75347    -2.00881    -0.96649
O     -2.56083    -0.82671    -1.79701
H     -2.55085     0.04361    -1.33551
O      2.74950    -0.32766    -1.77179
H      2.78856     0.12747    -0.91195
O      2.55167    -1.68962    -1.38174
H      1.70694    -1.84009    -1.83311
O      0.09306    -1.06449    -2.34358
H     -0.87135    -1.12327    -2.22420
O      0.25248     0.35994    -2.49565
H      1.22523     0.40118    -2.47518
O      2.57661     1.25636     0.39713
H      1.96645     1.57247     1.10556
O      2.28510     2.21332    -0.62201
H      3.16025     2.57355    -0.77883
O     -2.18812     1.32719    -0.29358
H     -2.21768     0.95068     0.61226
O     -0.83054     1.75764    -0.38947
H     -0.45979     1.25120    -1.14648
O      0.52394     2.01376     1.90107
H     -0.10207     1.93514     1.14997
O      0.17752     0.92738     2.75728
H      0.67289     0.18285     2.37973
O     -2.26494     0.05004     2.07645
H     -1.44730     0.33408     2.52998
O     -1.99510    -1.33138     1.82604
H     -2.26873    -1.42377     0.90033
