 20
-758.3136060329333
O     -1.01702    -0.67144     1.44402
H     -0.36571     0.04946     1.41622
O     -0.28342    -1.75611     0.86621
H     -0.36919    -1.55472    -0.08868
O      0.58517     1.48411     0.83900
H      0.75542     1.14176    -0.06418
O     -0.33639     2.53635     0.58424
H      0.21264     3.32132     0.67520
O      2.32678    -1.13335     1.12530
H      1.40509    -1.46121     1.19394
O      2.67150    -1.61272    -0.17486
H      3.22180    -2.37996     0.01702
O     -0.22341    -0.75262    -1.62080
H     -0.90648    -0.04407    -1.60998
O      0.94910     0.03372    -1.36097
H      1.57282    -0.65079    -1.03933
O     -2.90934     0.71209    -0.41173
H     -2.41632     0.16574     0.21845
O     -1.86850     1.27580    -1.20403
H     -1.44626     1.89248    -0.57792
