 40
-1516.6435107479097
O      1.45619     2.78891     0.70471
H      1.76404     2.29329    -0.08391
O      2.10436     2.08761     1.76333
H      1.38268     1.51748     2.09334
O      3.75088    -0.57658     0.27053
H      4.67731    -0.83203     0.21945
O      3.60767    -0.22987     1.63729
H      3.40726     0.72180     1.57947
O     -0.48028     1.72707    -2.95544
H     -1.31978     1.28541    -2.70851
O     -0.68020     3.08734    -2.57542
H     -0.87126     2.99797    -1.62486
O     -1.13101     2.69261     0.09610
H     -0.24696     2.87116     0.48813
O     -1.43054     1.39609     0.58326
H     -0.72004     0.85852     0.19429
O     -3.58717    -2.44580     0.57123
H     -3.38203    -2.19064    -0.34361
O     -3.54867    -3.87277     0.51939
H     -2.69806    -4.04892     0.94066
O      0.31994    -1.43464    -1.75399
H      0.93310    -0.83750    -2.22094
O      0.36541    -0.79864    -0.46985
H     -0.10094    -1.43413     0.09900
O      1.19018    -1.12776     2.63807
H      2.06071    -0.87683     2.28184
O      0.50383     0.13514     2.59168
H     -0.37490    -0.16816     2.29890
O     -2.29470    -0.94818    -1.58545
H     -1.35954    -1.03763    -1.86099
O     -2.58254     0.43271    -1.86822
H     -2.59754     0.81373    -0.97488
O     -1.45430    -1.49507     1.80854
H     -2.35464    -1.75423     1.50851
O     -0.76811    -2.74979     1.66626
H     -0.04738    -2.58870     2.29422
O      1.86375     0.63307    -2.41544
H      1.10844     1.22204    -2.64041
O      2.36069     1.18532    -1.20492
H      2.80883     0.42280    -0.79477
