 32
-1213.3163051547713
O     -1.88153    -0.59671    -0.10474
H     -1.76377    -0.94016     0.80432
O     -1.34720    -1.67857    -0.87262
H     -1.36356    -1.26545    -1.75784
O      1.46676    -2.18973    -1.32634
H      0.66324    -2.05650    -0.79868
O      2.48976    -1.66431    -0.48222
H      2.66521    -0.80624    -0.91802
O      1.40262    -1.06996     1.87383
H      1.91108    -1.38022     1.09097
O      1.44588     0.34704     1.66740
H      0.55760     0.63122     1.98417
O     -0.99627     1.19111     2.21304
H     -1.58305     1.08469     2.97366
O     -0.96985     2.60821     2.00279
H     -1.26488     2.63161     1.07493
O      1.63328     1.58951    -0.71129
H      1.63793     1.07464     0.12419
O      2.39771     0.77436    -1.59757
H      1.77428     0.65515    -2.33112
O     -0.87023    -0.21129    -3.07865
H     -0.92878     0.70803    -2.73880
O      0.53421    -0.32920    -3.32025
H      0.72539    -1.19906    -2.94221
O     -1.16744    -1.72863     2.22702
H     -0.19511    -1.59461     2.25125
O     -1.54481    -1.34728     3.54362
H     -1.97947    -2.14968     3.84793
O     -1.59832     1.99804    -0.58587
H     -1.67815     1.03026    -0.47236
O     -0.76377     2.10344    -1.73385
H      0.12690     2.11384    -1.32823
