 40
-1516.6408839079456
O      1.05961     2.12447    -2.02956
H      0.95756     2.12925    -1.05464
O     -0.22210     2.61563    -2.41520
H     -0.00053     3.47658    -2.78330
O     -2.66148    -0.29172     2.55665
H     -1.72214    -0.07771     2.47738
O     -2.95254    -0.73317     1.23254
H     -2.83588    -1.70732     1.29542
O      3.62745     2.08679     0.98417
H      2.87038     2.50182     1.42447
O      3.39467     0.71636     1.31256
H      4.17743     0.46823     1.81399
O     -1.01455    -3.45871     1.19472
H     -0.89016    -2.76436     0.51156
O     -2.42250    -3.37491     1.42866
H     -2.76316    -4.14447     0.96224
O      0.81150     2.44318     1.84151
H      0.85556     1.56116     2.23891
O      0.34954     2.09978     0.54014
H     -0.63193     1.97723     0.61654
O      1.73672    -0.41706    -0.42254
H      2.52419     0.01470    -0.02873
O      2.27808    -1.57987    -1.04033
H      2.07732    -1.34931    -1.97124
O     -2.24721     1.26739    -1.26436
H     -1.50384     1.80074    -1.60896
O     -2.21032     1.55841     0.13823
H     -2.62531     0.74018     0.50439
O     -0.67708    -1.46360    -0.54393
H      0.18577    -1.02428    -0.71782
O     -1.43153    -1.25932    -1.74260
H     -1.86753    -0.40678    -1.52989
O      0.46424    -1.50125     3.12628
H     -0.21581    -2.12051     2.81506
O      0.31294    -0.42812     2.20585
H      0.91586    -0.66492     1.48003
O      0.12181    -0.53720    -3.83566
H     -0.41939    -0.90798    -3.11193
O      1.37718    -0.32978    -3.18585
H      1.29594     0.58951    -2.87605
