 40
-1516.6440539760622
O      3.45161    -0.09240     0.06976
H      3.36483    -1.04638     0.25125
O      2.26568     0.11516    -0.70258
H      1.86592     0.90790    -0.29233
O     -2.65709    -1.03460    -3.04085
H     -2.93573    -0.90285    -3.95112
O     -1.24243    -0.98592    -3.16428
H     -1.02725    -0.13156    -2.72579
O      1.07034     2.41211     0.25797
H      0.33048     2.62898    -0.34360
O      0.41280     2.37489     1.53273
H      0.87595     1.64066     1.98530
O      3.07145    -2.56936     1.00173
H      2.70679    -2.31710     1.86198
O      2.14006    -3.56290     0.56059
H      1.99054    -3.27234    -0.35747
O     -3.36115     0.78078    -1.19822
H     -3.17774     0.01589    -1.77155
O     -3.31257     0.19568     0.10499
H     -3.08051     0.98976     0.63076
O     -0.02484    -1.53536     1.26755
H      0.19622    -2.01395     0.43959
O     -0.62495    -0.35331     0.73137
H     -1.57672    -0.56485     0.74381
O     -0.50316     0.94660    -1.53241
H     -0.54843     0.53415    -0.64431
O     -1.12512     2.20764    -1.31559
H     -2.05810     1.92156    -1.24768
O      1.51530    -2.25699    -1.70493
H      1.77091    -1.35044    -1.43228
O      0.16779    -2.32000    -1.24401
H     -0.34402    -2.04286    -2.02591
O      1.43552     0.17827     2.69799
H      0.95564    -0.54651     2.24683
O      2.74381    -0.35473     2.88619
H      3.21131     0.05362     2.14248
O     -2.69892     3.46163     1.25896
H     -3.13931     3.68903     2.08083
O     -2.23598     2.15641     1.56610
H     -1.25787     2.28465     1.55817
