 40
-1516.639776247294
O      3.32669    -0.80937     1.69873
H      2.42929    -0.44888     1.57195
O      3.26036    -2.04231     0.97764
H      3.51076    -1.77842     0.07923
O     -0.79538     0.68236    -0.66976
H     -1.10834     1.62078    -0.54567
O     -2.04590     0.00287    -0.79747
H     -1.96881    -0.23307    -1.73363
O     -2.05404     1.62712     2.30836
H     -1.19151     1.17682     2.44150
O     -2.94340     0.52747     2.12702
H     -3.41220     0.52330     2.96602
O      0.95649     0.33138     1.24140
H      0.23643     0.29645     0.56000
O      0.24125     0.20322     2.46258
H      0.13109    -0.77320     2.46800
O     -0.20006     3.49793     0.47450
H      0.27196     3.46520    -0.37509
O     -1.49920     3.05945     0.06901
H     -1.85481     2.72743     0.91853
O      2.17351     1.78472    -1.09784
H      1.78518     1.66254    -0.21477
O      1.29663     2.75488    -1.66877
H      0.74630     2.19828    -2.24426
O     -1.19420     0.21444    -3.31968
H     -1.33150    -0.05456    -4.23301
O      0.18107     0.60125    -3.33709
H      0.56986    -0.10570    -2.77312
O     -0.01675    -2.33108     1.83845
H     -0.93633    -2.42091     1.51111
O      0.70579    -2.57127     0.62797
H      1.63213    -2.57929     0.95899
O      1.20766    -1.16232    -1.65426
H      0.94518    -1.60257    -0.81531
O      2.60177    -0.88799    -1.49593
H      2.57519     0.08181    -1.40871
O     -2.54474    -2.93222    -0.49126
H     -3.40582    -3.33251    -0.34046
O     -2.41433    -2.14260     0.69086
H     -2.35425    -1.23900     0.30576
