 28
-1061.6402628487747
O     -1.37096    -0.48481    -1.90417
H     -1.62666    -0.85241    -1.03180
O     -0.14223    -1.16353    -2.14565
H     -0.30647    -1.61458    -2.98011
O      0.51231     0.34608     1.53722
H      0.75552    -0.50682     1.10259
O      1.76806     0.73151     2.09802
H      1.58221     0.66382     3.03673
O     -1.94151    -1.19745     0.60884
H     -2.17827    -0.39795     1.11235
O     -1.54352    -2.10990     1.63138
H      0.57706    -1.65093    -0.73505
O      0.46008     1.93975    -0.63681
H      0.37259     1.53266     0.25333
O     -0.89972     2.06848    -1.06581
H     -1.03822     1.23034    -1.54460
O     -2.23204     1.68758     1.23460
H     -1.88307     2.01251     0.38025
O     -3.54190     1.26113     0.84408
H     -4.04653     1.55594     1.60674
O      2.35621    -2.08508    -0.26427
H      2.57047    -1.27408    -0.77396
O      1.00952    -1.81829     0.12822
H     -0.65326    -2.32946     1.32575
O      3.48114     0.84516    -0.69358
H      3.14728     0.74390     0.20757
O      2.42505     0.29551    -1.46787
H      1.70751     0.95129    -1.33572
