 16
-606.6353538445304
O     -2.09879     0.36607     1.23626
H     -1.18980     0.57298     1.49598
O     -2.41851    -0.70623     2.12901
H     -3.04491    -0.27702     2.71864
O      0.77307     0.53824     0.92465
H      0.71873    -0.36329     0.56177
O      1.26213     0.29595     2.25071
H      2.14402     0.67626     2.19615
O      1.85965     1.33631    -1.79924
H      1.27716     1.18156    -1.03963
O      1.61393     0.17151    -2.58974
H      1.02056     0.51141    -3.26640
O      0.02308    -1.33963    -0.98089
H      0.68660    -1.05604    -1.62876
O     -1.03673    -0.44617    -1.36187
H     -1.55430    -0.42082    -0.54691
