 32
-1213.3096791824828
O      2.56845    -0.23898     0.73224
H      2.04983     0.45313     0.30167
O      1.94960    -1.40616     0.21904
H      1.08687    -1.39535     0.68264
O     -1.21819    -3.41997    -0.86542
H     -1.85521    -4.00179    -1.28899
O     -2.03985    -2.31708    -0.51192
H     -1.71518    -1.60470    -1.10438
O     -1.29620    -0.03223    -1.66534
H     -1.60480     0.64921    -1.03048
O      0.12328     0.17931    -1.62267
H      0.45046    -0.68839    -1.97076
O      0.71539     1.55385     2.53363
H      1.49645     1.87090     2.99789
O     -0.32521     2.34155     3.11027
H     -0.76526     2.64035     2.29232
O      0.54158     2.73293    -1.09626
H      0.37984     1.84999    -1.49399
O      1.70454     2.45284    -0.32286
H      2.40352     2.85855    -0.84633
O      2.04820    -2.58033    -2.18674
H      2.17832    -2.14330    -1.32455
O      0.67825    -2.26360    -2.43653
H      0.20113    -2.88890    -1.86462
O     -1.51441     2.80289     0.72584
H     -0.81436     2.91656     0.05698
O     -2.13220     1.59518     0.28468
H     -1.93124     0.96113     1.00215
O     -0.17553    -0.77727     1.65824
H      0.13799     0.07980     2.02128
O     -1.59340    -0.63182     1.70156
H     -1.86066    -1.36595     1.12819
