 36
-1364.9766438968888
O      1.55173     0.21638    -2.07460
H      1.95734    -0.65079    -1.85048
O      0.57100    -0.13496    -3.04316
H     -0.20432    -0.23189    -2.47351
O      0.72978    -2.63165    -0.72145
H      0.15526    -1.83945    -0.80006
O      2.04075    -2.06108    -0.71797
H      2.13602    -1.73638     0.20006
O     -1.56263     0.85057     1.58614
H     -2.12290     1.55064     1.17078
O     -0.29116     1.50411     1.63829
H      0.24661     0.78307     2.02993
O     -0.02798     3.22017    -0.44349
H     -0.02932     2.63021     0.33241
O     -0.55846     2.32326    -1.41800
H     -0.06443     2.55455    -2.21311
O     -2.86907     2.43705    -0.07000
H     -2.16370     2.59747    -0.73283
O     -3.80620     1.61806    -0.76616
H     -3.45550     0.72659    -0.62815
O     -1.00193    -0.62266    -0.53440
H     -1.04501    -0.07926     0.29564
O     -2.24539    -1.33504    -0.52175
H     -2.05374    -1.96304     0.19713
O      3.58728     1.55429    -0.18181
H      3.63966     2.51175    -0.11993
O      2.24428     1.34565     0.23508
H      1.82749     1.09237    -0.61876
O     -0.07423    -3.19116     1.74188
H      0.28517    -3.22487     0.82540
O     -1.46961    -3.04299     1.49294
H     -1.79333    -3.93588     1.64772
O      2.23057    -0.85399     1.69922
H      2.34661     0.03801     1.30392
O      0.95197    -0.70151     2.32164
H      0.59042    -1.60606     2.28752
