 24
-909.9789031376042
O      0.05826    -1.56558    -2.12479
H     -0.54279    -0.80459    -2.12971
O     -0.78586    -2.56079    -1.56151
H     -0.79544    -3.22666    -2.25536
O     -2.14433    -2.49281     1.38056
H     -2.21284    -2.88256     2.25579
O     -0.73751    -2.62155     1.16015
H     -0.71417    -2.67380     0.19254
O      1.86563    -0.34918    -0.54369
H      1.38447    -0.97257    -1.11298
O      1.73034     0.87188    -1.28481
H      0.75542     0.97282    -1.29980
O     -1.05560     2.24585    -1.04883
H     -0.56620     2.54141    -0.24926
O     -0.88176     0.83515    -1.01891
H     -0.93837     0.60596    -0.06526
O      0.74053     0.24759     1.81758
H      1.17626    -0.03659     0.98334
O     -0.64479     0.04610     1.50610
H     -0.75233    -0.91584     1.65313
O      0.35774     2.81232     1.15146
H      0.53682     1.97175     1.62609
O      1.64344     3.20242     0.68680
H      1.80541     2.56852    -0.02907
