 20
-758.3094593521693
O     -1.56044    -2.17022     0.53832
H     -2.22388    -1.51737     0.27130
O     -0.42331    -1.31631     0.67631
H     -0.07415    -1.28811    -0.23459
O      1.68875     0.15118    -1.37218
H      2.13577    -0.11891    -0.53507
O      0.86495    -0.99126    -1.61311
H      1.43417    -1.55295    -2.14917
O     -0.02499     1.55399     1.02598
H     -0.53297     0.72901     1.00329
O     -0.09752     1.99577    -0.33256
H      0.61479     1.48031    -0.74909
O      2.37271    -0.57924     1.04823
H      1.53163    -0.87238     1.42913
O      2.50078     0.77144     1.48353
H      1.60252     1.12963     1.34032
O     -2.22358     0.56340    -1.33530
H     -1.60052     1.23887    -1.00968
O     -2.81795     0.15124    -0.10159
H     -3.74628     0.33593    -0.26670
