 24
-909.9767732584243
O     -2.08369    -1.67097    -0.25364
H     -1.29800    -1.42602    -0.77716
O     -2.12214    -0.64165     0.73674
H     -1.44948    -0.95326     1.36828
O      1.32915    -1.66142    -0.85446
H      1.11788    -1.49894     0.08058
O      0.23307    -1.05729    -1.54443
H      0.39077    -0.10864    -1.38446
O      3.26934     0.13377    -1.33661
H      2.64838    -0.62095    -1.27860
O      3.12916     0.66423    -0.01904
H      3.95296     0.39767     0.40235
O     -2.26923     2.16597    -0.64078
H     -2.41056     2.25737    -1.58817
O     -3.45242     1.47991    -0.21491
H     -3.05089     0.64297     0.09371
O      1.00424    -0.65944     1.71357
H      0.58474     0.18683     1.43492
O     -0.09008    -1.33474     2.31943
H      0.11126    -1.26677     3.25711
O      0.69814     1.41065    -0.62901
H      1.61713     1.31205    -0.30224
O     -0.04484     1.49622     0.59476
H     -0.93598     1.73351     0.23940
