 20
-758.3029412023268
O      0.58529    -0.44431     1.65103
H      1.51928    -0.71855     1.52002
O      0.00425    -1.64918     2.19190
H     -0.91444    -1.50551     1.92312
O      2.98457    -1.30660     0.95880
H      3.85198    -1.50765     1.32275
O      3.24229    -0.08483     0.24942
H      2.67462    -0.22151    -0.52075
O     -1.58614     0.94936     0.84549
H     -0.70118     0.69378     1.16221
O     -2.10479    -0.36340     0.54297
H     -2.11647    -0.31210    -0.42499
O     -2.46100     0.45416    -2.01738
H     -3.37125     0.51908    -2.32741
O     -2.08261     1.82799    -1.88001
H     -2.07879     1.90916    -0.91253
O      0.75867    -0.34749    -1.32574
H      0.41688    -0.62434    -0.46158
O      0.72124     1.07613    -1.19965
H     -0.06198     1.29467    -1.72321
