 40
-1516.6387005952831
O      1.49044     2.58571     0.70773
H      1.68825     3.39510     1.19161
O      1.28457     1.65339     1.77034
H      0.30029     1.55191     1.72912
O      0.43102    -1.30158    -0.77347
H      1.19341    -0.71770    -0.60253
O      0.03367    -0.98777    -2.10478
H     -0.85289    -0.63712    -1.92807
O     -1.81881     1.13716    -1.30616
H     -1.65579     2.02889    -1.69462
O     -3.22676     0.98892    -1.52727
H     -3.37577     0.20545    -0.97200
O     -1.30521     1.37475     1.32893
H     -1.52446     1.20981     0.38103
O     -1.95046     0.29922     2.01772
H     -1.17146    -0.16753     2.39689
O     -1.29143     3.60488    -2.05488
H     -1.69359     4.41915    -1.74023
O      0.06510     3.75324    -1.61959
H      0.46341     3.00767    -2.11210
O      2.36800     1.40638    -1.93851
H      2.20636     1.90471    -1.12583
O      1.08417     1.47539    -2.55134
H      0.78869     0.54162    -2.54578
O      2.72567    -0.31211     0.65373
H      2.31111     0.42705     1.14977
O      2.65444    -1.36478     1.62195
H      2.66198    -2.15343     1.03849
O     -0.45429    -2.28113     2.04665
H     -0.57762    -2.02082     1.11309
O      0.17514    -1.13409     2.60675
H      1.11015    -1.20924     2.29755
O      1.15854    -4.28407     0.62947
H      0.93567    -3.80520     1.44000
O      2.11826    -3.41817     0.01781
H      1.60820    -3.02477    -0.70445
O     -3.20478    -1.16529     0.16487
H     -2.76798    -0.74051     0.93434
O     -2.24160    -2.14714    -0.20664
H     -2.69155    -2.96606     0.01990
