 24
-909.9738095376271
O     -2.34854    -1.78432     0.26624
H     -2.62141    -2.70496     0.33664
O     -1.90610    -1.49799     1.59527
H     -0.94904    -1.36191     1.45444
O     -0.40373    -1.05901    -1.44048
H     -1.16124    -1.30597    -0.87388
O      0.46436    -2.18380    -1.28746
H      1.31615    -1.73458    -1.20420
O      2.85507    -0.39132    -0.55458
H      3.72675    -0.56970    -0.18953
O      3.17320     0.33233    -1.74738
H      2.54161     1.06159    -1.65185
O     -0.21850     2.05062    -2.15654
H     -1.10195     2.06446    -1.76862
O      0.52230     1.38989    -1.13355
H      0.22491     0.45622    -1.25139
O      0.59845     0.21698     2.52806
H     -0.25573     0.68125     2.45081
O      0.57351    -0.56505     1.32791
H      1.33806    -0.21369     0.84125
O     -1.80983     1.37677     1.92471
H     -2.26809     0.55834     1.68796
O     -1.62863     1.99243     0.64675
H     -0.67254     1.91560     0.52404
