 12
-454.9721280406554
O     -0.21479     0.80128     1.47795
H      0.62579     0.72548     1.00069
O     -0.17889     2.16190     1.91440
H      0.00067     2.06078     2.85522
O      2.25298    -1.31137    -0.64346
H      2.90868    -1.17623    -1.33530
O      1.54122    -0.07069    -0.67259
H      0.71165    -0.33674    -1.09561
O     -1.33237    -0.16993    -1.02515
H     -1.36643     0.08284    -0.08996
O     -2.00439    -1.43274    -1.00755
H     -2.83461    -1.21403    -1.44230
