 20
-758.3000887951595
O     -0.07877    -1.05835     1.58565
H      0.03563    -0.32350     0.94239
O     -0.25395    -2.17129     0.69937
H     -0.65802    -2.81299     1.29205
O      0.56102     1.80473     1.13852
H      1.43749     1.53406     1.45830
O      0.46492     0.94915    -0.00422
H     -0.19124     1.41041    -0.55219
O      2.77151     0.93334     2.43183
H      2.91706     1.26318     3.32395
O      2.65735    -0.47214     2.64478
H      1.71887    -0.62158     2.46258
O     -0.96883    -1.69811    -2.55724
H     -0.62853    -0.86551    -2.91146
O     -1.65945    -1.23017    -1.39279
H     -1.10409    -1.58644    -0.67296
O     -1.79887     1.44440    -1.73353
H     -1.95974     0.48674    -1.60890
O     -1.13516     1.42748    -3.00465
H     -1.79647     1.84177    -3.56705
