 36
-1364.9786308580415
O      2.66678     0.68317     0.93514
H      2.13918    -0.09877     0.66314
O      2.29998     1.63600    -0.06775
H      1.53061     2.06747     0.35309
O     -0.06154     0.19718     3.04676
H      0.67226     0.80317     3.27841
O     -1.09810     1.14819     2.77631
H     -1.72068     0.60434     2.27065
O     -0.35637    -2.25979    -4.47530
H     -0.32953    -1.43644    -3.95982
O     -1.49060    -2.90543    -3.90621
H     -2.17486    -2.78473    -4.57358
O     -2.33324    -0.46343    -0.97583
H     -2.27437    -1.42040    -0.78925
O     -2.29833     0.10949     0.34219
H     -1.87222     0.96368     0.13102
O     -0.23551     0.09229    -2.54483
H     -1.00174     0.02182    -1.93516
O      0.32659     1.34684    -2.18363
H      1.13346     1.07756    -1.71660
O      0.92570    -1.03076    -0.02211
H      0.58164    -1.52496    -0.78863
O      0.04001    -1.52669     0.99678
H      0.07448    -0.82028     1.67129
O      0.02899     2.63578     0.87513
H     -0.37125     2.21356     1.66419
O     -0.98797     2.38029    -0.09684
H     -0.46825     2.19962    -0.90904
O      1.97775     1.92965     3.16037
H      2.45725     1.54146     2.39008
O      2.85193     1.60334     4.24319
H      3.08758     2.48253     4.55140
O     -0.56205    -2.66960    -1.46039
H     -1.00349    -2.88726    -2.30873
O     -1.55811    -3.03195    -0.49772
H     -1.06370    -2.75621     0.29520
