 16
-606.6397877210741
O     -2.22403    -0.34104    -0.10397
H     -2.55256    -0.41993    -1.00402
O     -1.81232    -1.68302     0.19700
H     -0.87969    -1.66913    -0.11879
O      0.71747    -1.48068    -0.65204
H      1.06797    -0.60223    -0.90627
O      1.40749    -1.74917     0.56761
H      1.00265    -1.11131     1.16934
O      1.45513     1.12116    -0.89987
H      0.86272     1.43233    -0.18902
O      0.77844     1.61640    -2.05736
H      1.48547     2.12536    -2.46494
O     -0.47896     1.33870     0.97977
H     -1.13647     0.69017     0.63524
O      0.04623     0.64096     2.10820
H     -0.36988     1.11297     2.83394
