 40
-1516.6383381736866
O      3.09029    -0.87528    -1.72352
H      3.48058    -0.82955    -0.82876
O      2.74843     0.51327    -1.87761
H      1.84448     0.46324    -2.25186
O      0.32656     2.01008     1.06892
H      1.22625     1.71594     1.30140
O     -0.13977     2.64607     2.25261
H     -0.75201     1.96916     2.57835
O     -2.41892     0.87427     2.88942
H     -2.48412     0.61140     1.95211
O     -2.90102    -0.29299     3.54394
H     -3.64586     0.06115     4.03963
O     -1.91841    -3.10819    -0.71294
H     -2.60123    -3.77926    -0.61416
O     -1.71301    -2.69770     0.64142
H     -1.96300    -1.76184     0.57313
O      0.08419    -0.67448     2.24518
H     -0.31749    -1.26008     2.90130
O      1.14303    -1.45753     1.70020
H      0.75177    -1.77535     0.86980
O      0.58648    -3.30987    -1.71143
H     -0.34525    -3.43300    -1.48276
O      0.71331    -1.98468    -1.19200
H      1.63484    -1.73441    -1.44007
O      0.43684     3.55162    -1.13568
H      0.43055     3.22966    -0.21546
O     -0.69907     2.83480    -1.63405
H     -1.33058     3.53485    -1.83039
O     -2.00204     0.31446     0.28548
H     -1.23106     0.90789     0.23612
O     -2.73145     0.61452    -0.89467
H     -2.14043     0.23673    -1.58194
O      3.36643    -0.21925     0.81445
H      2.58484    -0.59582     1.25887
O      2.99624     1.15619     0.69196
H      2.94906     1.23210    -0.27976
O     -0.86540    -0.38261    -2.55701
H     -0.39885    -1.08115    -2.04698
O      0.18393     0.57616    -2.70393
H     -0.24123     1.39007    -2.36007
