 20
-758.3101327095931
O     -0.64855    -0.69564     1.62695
H     -0.41944     0.24485     1.48945
O     -1.19564    -1.04522     0.35010
H     -0.40021    -1.12501    -0.22140
O      1.17454     1.56826     0.10695
H      1.64032     0.88185     0.61961
O      0.04844     1.80054     0.95286
H     -0.65010     1.97407     0.30638
O      2.45571    -0.56315     1.05110
H      2.95105    -1.21805     0.54573
O      2.16584    -1.23818     2.27182
H      1.21283    -1.38840     2.16822
O     -0.05387    -0.82525    -2.61129
H     -0.79445    -0.25657    -2.35361
O      0.75534    -0.81821    -1.43596
H      0.98265     0.12006    -1.32971
O     -2.47294     1.16641    -0.40303
H     -2.17641     0.28703    -0.07511
O     -2.24621     1.02721    -1.80585
H     -3.11902     0.78057    -2.12468
