 32
-1213.3070982791437
O     -0.77039    -0.79197     1.30107
H      0.01850    -0.25983     1.56171
O     -0.17117    -1.97673     0.77137
H      0.05779    -1.70139    -0.14903
O      1.44137     1.66400    -1.11266
H      0.49335     1.55257    -0.88596
O      1.49453     0.87498    -2.30558
H      2.43504     0.89740    -2.51382
O     -2.52829    -3.14939    -1.10201
H     -2.76981    -4.07833    -1.03516
O     -2.76189    -2.66318     0.22280
H     -1.84942    -2.54520     0.54418
O     -1.06440     1.16821    -0.43947
H     -1.17391     0.42315     0.19412
O     -2.14845     0.93546    -1.33770
H     -1.81312     0.15752    -1.82869
O      1.09135     1.00971     1.55219
H      0.86057     1.96154     1.51229
O      1.79235     0.88285     2.79036
H      2.32265     0.10750     2.54104
O      0.22700    -1.42108    -1.79000
H      0.61955    -0.55351    -2.02931
O     -1.07670    -1.30967    -2.36683
H     -1.55736    -2.01214    -1.88053
O      2.68402    -0.69010    -0.02141
H      2.58213     0.26010     0.13666
O      2.67533    -1.20084     1.32068
H      1.88154    -1.75385     1.31169
O     -1.23016     3.21634     1.53783
H     -1.64370     2.79911     0.76764
O      0.09997     3.38153     1.03414
H      0.22502     4.33603     1.04448
