 32
-1213.3127592148142
O      3.24888     0.08403     2.11029
H      3.14765    -0.27749     1.20623
O      1.88222     0.12192     2.51927
H      1.97573     0.08989     3.47662
O     -1.98167    -1.35375    -1.75876
H     -1.23315    -0.95782    -2.23449
O     -1.62820    -2.73937    -1.69905
H     -0.93318    -2.72064    -1.02687
O      2.31312     2.41138     0.58232
H      2.21566     1.87115     1.38119
O      0.98278     2.90054     0.38735
H      0.86704     2.75129    -0.56311
O      0.19712     0.45348    -2.38347
H      1.13018     0.46415    -2.08089
O     -0.24022     1.76880    -2.01797
H     -0.99396     1.55824    -1.44964
O      2.65592     0.52287    -1.27841
H      2.73740     1.25446    -0.63684
O      2.78304    -0.62435    -0.43444
H      1.86313    -0.97996    -0.41308
O     -1.47431     0.26551     0.81787
H     -2.39661    -0.07634     0.90806
O     -1.69242     1.65142     0.54250
H     -0.84775     2.01548     0.83936
O      0.35761    -1.45032     0.04024
H     -0.36436    -0.80086     0.22888
O      0.58800    -2.00161     1.33319
H      1.05250    -1.26453     1.76352
O     -3.87570    -0.86429     1.01753
H     -4.26483    -1.62110     1.46650
O     -4.46600    -0.91803    -0.28103
H     -3.68564    -1.15959    -0.80522
