 28
-1061.64962785664
O      1.28975     1.45172    -2.00548
H      0.94434     2.28491    -1.64515
O      2.13450     1.02195    -0.92898
H      1.53862     1.17063    -0.16552
O      0.41664    -2.14963     1.71460
H     -0.36400    -2.32364     1.15527
O      0.80125    -0.89013     1.15594
H      1.34129    -1.20542     0.39322
O     -1.30317    -0.05474     2.51741
H     -0.40244    -0.23752     2.17102
O     -1.39845     1.36284     2.42788
H     -0.45569     1.83126     1.10648
O     -0.88515    -0.16229    -1.76678
H     -0.07967     0.37958    -1.88313
O     -1.86160     0.83048    -1.40318
H     -2.33074     0.32409    -0.70942
O     -2.56307    -1.04233     0.33800
H     -2.25495    -0.81704     1.23110
O     -1.61745    -2.05459    -0.03295
H     -1.17698    -1.58755    -0.76640
O     -0.46194     2.91806    -0.46832
H     -1.07603     2.25308    -0.84580
O      0.23906     2.11151     0.47674
H     -1.35954     1.62632     3.35252
O      2.83793    -1.41894    -1.80234
H      2.69977    -0.49414    -1.51982
O      2.27560    -2.09002    -0.66793
H      3.02301    -2.60433    -0.34621
