 32
-1213.3113753831733
O      2.21817    -1.93077     1.10738
H      2.44776    -2.57189     1.78737
O      1.33750    -2.67175     0.26869
H      1.83513    -2.63415    -0.56477
O     -1.84714    -1.62615    -1.92501
H     -2.20825    -1.70029    -1.02665
O     -0.81951    -0.68301    -1.64760
H     -0.05481    -1.06845    -2.11207
O      2.30808     0.88385    -0.70049
H      1.44534     1.34751    -0.81336
O      2.41558     0.72720     0.71050
H      2.37372    -0.23950     0.80399
O     -2.27515    -1.24031     0.70123
H     -2.59141    -0.31319     0.67854
O     -0.96822    -1.08334     1.26058
H     -0.45073    -1.68575     0.70379
O     -0.87807     2.65999    -0.42154
H     -0.50513     2.38536     0.43929
O     -0.10896     1.83309    -1.29316
H     -0.61659     0.99781    -1.34180
O      2.57530    -1.45457    -1.93119
H      2.54661    -0.55356    -1.52897
O      1.47879    -1.40860    -2.83937
H      1.90223    -1.18831    -3.67517
O     -0.23555     1.39233     1.76494
H     -0.45210     0.44066     1.61752
O      0.78799     1.33729     2.74182
H      1.55937     1.30925     2.15290
O     -3.04359     1.32744     0.45726
H     -2.49040     1.95866    -0.04657
O     -3.17873     1.98368     1.71517
H     -2.27386     1.93940     2.05423
