 40
-1516.6383095092326
O      0.73311     4.22752    -0.30911
H     -0.02340     4.59360     0.16611
O      0.59960     4.80592    -1.61695
H      0.40259     4.01577    -2.13683
O      1.99068    -0.95737    -0.34442
H      2.66815    -0.54427     0.21279
O      1.30875    -1.77967     0.60858
H      1.10493    -2.55538     0.04860
O     -0.79270    -1.05166    -1.50649
H      0.11340    -0.69309    -1.46689
O     -1.48387    -0.10284    -2.32296
H     -1.97865     0.38530    -1.63128
O     -1.38164     2.04763     0.31598
H     -0.65623     1.84007    -0.31473
O     -2.38481     1.11418    -0.09330
H     -2.23195     0.38991     0.54851
O      0.41895     1.77987    -2.73315
H     -0.34514     1.21548    -2.94607
O      0.54621     1.38702    -1.36469
H      1.45859     1.66880    -1.13575
O      2.87163     2.14622    -0.32984
H      2.93891     3.08188    -0.09780
O      3.10261     1.47068     0.90474
H      2.19872     1.36528     1.26812
O     -0.28783     1.33564     2.64031
H     -0.74495     1.70192     1.85282
O      0.83132     0.68451     2.04217
H      0.46301    -0.15599     1.71784
O     -2.05387    -0.71886     2.87780
H     -1.49526     0.03578     3.13196
O     -1.60674    -0.83988     1.52202
H     -1.36597    -1.79111     1.48237
O      0.79490    -3.76373    -1.14176
H      1.27025    -3.94256    -1.96150
O     -0.56828    -3.70140    -1.57018
H     -0.72717    -2.73102    -1.55360
O     -1.91318    -4.22305     0.94936
H     -1.39541    -4.39643     0.15278
O     -0.97731    -3.41995     1.67120
H     -0.94995    -3.84416     2.53699
