 40
-1516.6411328109546
O      1.47058    -1.29803    -2.08804
H      0.65247    -0.91763    -2.48153
O      1.97102    -0.23148    -1.28412
H      1.65271    -0.47227    -0.38850
O     -1.59264    -0.30521     2.50017
H     -1.99295    -0.95593     1.89188
O     -2.00254     0.92587     1.89885
H     -1.60074     1.58381     2.50287
O      0.74509     2.44223     0.81189
H      1.42486     2.65402     0.14615
O      1.54285     2.09396     1.94787
H      1.48077     1.12010     1.95363
O     -0.81347    -3.02667     0.78723
H     -0.71305    -3.49491    -0.05792
O     -1.90691    -2.14422     0.55949
H     -1.56987    -1.57613    -0.16000
O     -1.01454     4.02526     3.59875
H     -1.01251     4.09217     4.55645
O     -0.60779     2.67069     3.43517
H      0.24251     2.73989     2.95063
O     -1.35881     1.44326    -1.49349
H     -0.51686     1.91171    -1.59527
O     -0.98943     0.46677    -0.52255
H     -1.32254     0.82546     0.33266
O     -0.92161    -0.69982    -3.06287
H     -1.35754     0.04978    -2.62460
O     -1.45265    -1.80121    -2.32687
H     -1.02285    -2.55111    -2.77361
O      0.62502    -3.81705    -1.65886
H      1.04326    -2.93455    -1.74545
O     -0.00137    -3.96070    -2.92749
H      0.62487    -4.50782    -3.41529
O      1.20688    -1.29959     1.06350
H      0.54946    -2.02291     1.13088
O      1.08308    -0.58798     2.29321
H      0.11299    -0.52827     2.41325
O      1.43540     2.25829    -2.05013
H      1.73470     1.34303    -1.87670
O      2.39509     2.98141    -1.28442
H      2.39871     3.82423    -1.74512
