 32
-1213.3116939261058
O      0.55859     2.01209     2.76382
H      1.38129     1.68267     2.35908
O     -0.00854     2.72513     1.65882
H     -0.64729     2.07260     1.30769
O     -1.90782    -1.95272     0.45306
H     -2.40559    -2.70074     0.10144
O     -0.57389    -2.47720     0.51437
H     -0.18760    -2.16619    -0.33321
O     -2.21894    -1.17856    -2.43336
H     -1.94361    -0.47718    -1.80646
O     -1.28910    -0.94885    -3.49551
H     -1.72172    -1.39699    -4.22888
O      0.97096     2.18429    -1.13396
H      0.93177     3.14277    -1.19258
O      1.32087     1.78686    -2.45955
H      1.45088     0.83268    -2.29897
O      1.91679    -0.43923     0.90075
H      1.28158    -0.60033     1.63650
O      2.41249     0.87039     1.17262
H      2.15447     1.33176     0.36337
O     -1.12788     0.57222    -0.75124
H     -0.39578     1.20902    -0.88047
O     -1.63623     0.95379     0.53188
H     -1.59136     0.11571     1.02104
O      0.59460    -1.81095    -1.79933
H      0.01030    -1.48316    -2.51500
O      1.58249    -0.78693    -1.69354
H      1.74001    -0.78496    -0.72418
O     -0.87690    -0.22578     3.06578
H     -0.42436     0.64181     3.13231
O      0.25829    -1.08373     2.88288
H     -0.16183    -1.85985     2.48613
