 32
-1213.3104394152517
O      1.35130    -1.53964    -0.32700
H      2.17056    -1.03140    -0.10942
O      0.77064    -1.74631     0.96399
H     -0.16937    -1.49030     0.80734
O     -0.55614    -2.37338    -1.98262
H      0.25333    -2.13242    -1.48369
O     -0.33820    -1.65459    -3.18993
H     -0.61641    -2.29662    -3.84906
O     -2.50185    -1.81953    -0.07387
H     -1.87406    -2.00091    -0.79036
O     -1.73037    -0.91922     0.72031
H     -2.26662    -0.10039     0.68099
O     -1.96507     1.45363    -2.40911
H     -2.30115     1.89571    -1.61743
O     -1.20084     0.42792    -1.76306
H     -1.07564    -0.24229    -2.46068
O      0.72419     1.45666    -0.28251
H      0.01224     0.97717    -0.76559
O      0.08789     1.81724     0.94902
H      0.53397     1.24899     1.60383
O      3.45000    -0.11636     0.42108
H      3.35333     0.14210     1.35511
O      3.38580     1.15432    -0.22681
H      2.42173     1.27817    -0.30444
O      2.66034     0.36727     2.92657
H      2.86142    -0.03687     3.77500
O      1.27244     0.10029     2.78319
H      1.25697    -0.68251     2.18369
O     -3.10748     1.38476     0.85766
H     -3.61626     1.88108     1.50656
O     -2.38705     2.40288     0.17078
H     -1.48015     2.24484     0.51490
