 32
-1213.3148740267814
O     -1.64097    -2.10549    -0.77793
H     -1.61318    -1.74054    -1.68285
O     -0.25405    -2.39446    -0.57438
H     -0.10447    -2.03281     0.31734
O      0.06321    -0.71735     3.07376
H     -0.90102    -0.71711     2.98561
O      0.42823    -1.27006     1.81201
H      1.22568    -0.74936     1.55821
O     -0.67176     0.04113    -3.40245
H     -0.61160     0.34862    -2.47421
O     -1.61481    -1.01942    -3.26093
H     -2.40425    -0.65453    -3.67407
O      0.69064     1.84650     2.69981
H      0.47771     0.93893     2.99375
O     -0.53403     2.20922     2.06006
H     -0.25964     2.25375     1.12156
O      0.07123     1.97647    -0.50893
H      1.01668     1.75446    -0.52611
O     -0.50117     0.71348    -0.83846
H     -1.25243     0.61763    -0.20849
O      2.32753    -0.70391    -3.05828
H      1.57727    -0.30578    -3.51953
O      1.88718    -0.65682    -1.71002
H      1.27512    -1.40765    -1.62230
O      2.52304    -0.00019     0.80445
H      2.52046    -0.23141    -0.14371
O      2.52371     1.42910     0.75263
H      2.01900     1.64093     1.56114
O     -2.52795     0.11151     0.74534
H     -2.45452    -0.84729     0.61834
O     -2.37727     0.25777     2.15924
H     -1.85639     1.08349     2.18390
