 32
-1213.3079286295772
O      3.28528     0.11580    -0.91985
H      2.67784    -0.64349    -0.99602
O      3.82014    -0.07544     0.39286
H      3.13738     0.34774     0.94816
O     -1.53856    -1.21628     0.87184
H     -1.07536    -1.15715     0.01009
O     -2.57647    -0.25881     0.69445
H     -3.15608    -0.69184     0.03970
O     -1.63962     1.97746    -0.35624
H     -1.87065     1.15927     0.14447
O     -2.59444     1.92480    -1.41004
H     -3.29111     2.50293    -1.08311
O      0.69536     0.98266     1.32071
H      0.99636     1.54461     0.57420
O      1.92294     0.83968     2.06136
H      1.64720     0.18368     2.71913
O      0.62045     1.43844    -1.71324
H     -0.20882     1.81913    -1.35942
O      1.58828     2.14279    -0.92938
H      2.37128     1.54975    -1.02770
O      1.29296    -1.68854    -0.77328
H      1.18748    -1.65324     0.19125
O      0.05903    -1.13717    -1.22862
H      0.31313    -0.22988    -1.51012
O      0.88097    -1.83708     2.23399
H     -0.04450    -1.55480     2.15007
O      1.21061    -1.32696     3.52462
H      1.82511    -1.99781     3.83295
O     -3.94443    -1.01415    -1.49124
H     -4.08201    -1.89639    -1.84959
O     -2.74862    -0.62957    -2.17043
H     -2.74048     0.32228    -1.96481
