 24
-909.978085796423
O     -1.63706    -1.10545     0.84194
H     -2.38383    -0.75917     0.31258
O     -1.27591    -2.22525     0.01523
H     -0.56308    -2.58189     0.57037
O      0.05867    -0.29489    -1.39515
H     -0.58047    -0.93919    -1.04495
O     -0.44099     0.93368    -0.83909
H      0.31775     1.52804    -1.01640
O      2.29195    -0.83689    -0.01307
H      1.54313    -0.55618    -0.57734
O      2.43834     0.29623     0.85346
H      1.78224     0.07846     1.54662
O     -3.39731    -0.30700    -0.92300
H     -4.35812    -0.28552    -0.95399
O     -3.06755     1.03338    -1.31967
H     -2.10376     0.99917    -1.16644
O      0.59601    -0.95388     2.28701
H     -0.25591    -0.76306     1.85799
O      0.84044    -2.24903     1.69902
H      1.53356    -1.99238     1.06131
O      1.93774     2.18805    -0.98830
H      2.35311     1.63376    -0.29684
O      1.69330     3.39311    -0.26563
H      2.21123     4.01922    -0.78048
