 32
-1213.3099979459107
O      0.92017    -1.33757    -0.23221
H      1.78615    -1.13241     0.18852
O      0.07337    -1.47301     0.91864
H     -0.81941    -1.44582     0.50459
O     -0.41050    -2.50640    -2.25802
H      0.12375    -2.12382    -1.53147
O     -0.63568    -1.35085    -3.06362
H     -0.10156    -1.51729    -3.84772
O     -2.76885    -2.62560    -0.63008
H     -2.37681    -2.66436    -1.51060
O     -2.30949    -1.32607    -0.24503
H     -3.06114    -0.96777     0.24607
O     -0.90645     1.85009    -2.66572
H     -0.67202     2.65132    -2.18417
O     -0.69271     0.87979    -1.64075
H     -0.79224     0.03545    -2.13270
O      1.59487     1.61738    -0.54889
H      0.84687     1.18236    -1.01717
O      0.91118     2.65542     0.15767
H      0.72598     2.21773     1.00735
O      3.27823    -0.72209     0.83857
H      4.16714    -0.82545     0.48672
O      3.26492     0.64840     1.24328
H      2.70180     1.04007     0.53402
O      1.34772     0.28451     3.46611
H      2.22149     0.49371     3.11149
O      0.52437     0.68893     2.38000
H      0.39517    -0.15336     1.88413
O     -2.05496     1.74676     1.00291
H     -1.72165     1.32393     0.20125
O     -2.26203     0.61823     1.85338
H     -1.57681     0.75833     2.52405
