 32
-1213.3083219205857
O      0.59514    -1.45853     1.17083
H      0.98329    -0.75299     0.61919
O      1.64370    -2.41055     1.28670
H      1.31126    -3.10322     0.69995
O      0.22466    -4.16560    -0.91054
H      0.12554    -4.86365    -1.56332
O      0.09051    -3.00139    -1.73123
H     -0.65787    -2.54576    -1.29367
O     -1.77434    -1.37310    -0.62320
H     -2.07030    -1.04257     0.25149
O     -1.67684    -0.14236    -1.36110
H     -0.80589    -0.23919    -1.79597
O     -2.42483    -0.22586     1.74984
H     -2.58710     0.69462     1.49831
O     -1.23741    -0.08150     2.54055
H     -0.65539    -0.73303     2.11665
O      1.63505     2.39971    -1.06594
H      1.44123     2.12160    -0.14840
O      0.76050     3.50826    -1.25466
H      1.29942     4.24921    -0.96238
O      0.86825    -0.04426    -2.25824
H      1.20649     0.86266    -2.20788
O      1.75421    -0.69194    -1.33552
H      1.61657    -1.61252    -1.59509
O      1.70081     1.20520     2.65724
H      1.75824     0.25130     2.80159
O      1.10959     1.26866     1.37131
H      0.15867     1.37672     1.56393
O     -1.80443     3.09022    -0.40545
H     -0.94902     3.37951    -0.75172
O     -1.38246     1.91659     0.28863
H     -1.43914     1.22788    -0.40900
