 36
-1364.9747725122852
O      2.70559     0.50154     0.79767
H      2.14564    -0.19709     1.18958
O      2.19948     0.54794    -0.53591
H      1.40316     1.11163    -0.45074
O      0.89211    -1.16656     1.79176
H      0.16798    -0.58035     2.11149
O      0.21943    -2.34294     1.34975
H      0.72660    -2.54544     0.54828
O      0.78317     2.85692     1.99407
H      0.87883     3.63961     1.44138
O      2.11357     2.59011     2.43646
H      2.40606     1.91304     1.79501
O     -0.17645     1.77724    -0.55937
H     -0.77491     1.61746     0.21098
O     -0.64021     3.01397    -1.07805
H     -1.30259     2.67914    -1.69830
O     -0.23269    -1.01137    -1.46360
H     -0.30596    -0.05740    -1.67487
O     -0.13121    -1.61913    -2.74969
H      0.73980    -2.02724    -2.65228
O     -3.55026     0.78907    -1.88085
H     -3.49610     0.11864    -1.18174
O     -2.20731     0.77478    -2.37179
H     -2.27070     0.26305    -3.18676
O     -0.75832     0.77063     2.57160
H     -0.17638     1.55980     2.53777
O     -1.67453     1.11399     1.52121
H     -1.99616     0.23008     1.22864
O      2.21854    -3.01442    -0.68745
H      3.00565    -3.55643    -0.55607
O      2.60346    -2.15831    -1.75631
H      2.60532    -1.29597    -1.31029
O     -2.40814    -2.30524     0.89770
H     -1.49755    -2.41808     1.21860
O     -2.28760    -1.07509     0.20139
H     -1.58714    -1.25066    -0.46428
