 36
-1364.9764895130797
O     -0.73177     0.92635    -1.38684
H     -1.19186     0.49225    -0.64329
O      0.08420    -0.12709    -1.90288
H     -0.40909    -0.94633    -1.70306
O     -1.90501    -1.56973    -0.29065
H     -1.34570    -1.77993     0.48917
O     -2.48671    -2.83076    -0.58389
H     -1.77025    -3.24425    -1.08692
O      1.33263     0.05772     1.37442
H      1.59356     0.94958     1.04655
O      0.57848     0.30297     2.55925
H     -0.28449     0.53473     2.18267
O      0.38196    -2.89915    -1.52878
H      0.58975    -2.99000    -0.57639
O      1.68133    -2.79644    -2.10355
H      1.98701    -1.95191    -1.74651
O     -3.20063     0.15069     1.65532
H     -3.32524    -0.47971     0.93323
O     -2.02902     0.80059     1.17055
H     -2.24620     1.75207     1.22511
O      3.25418    -0.26549    -1.84693
H      3.81754    -0.43474    -2.60745
O      2.53296     0.88732    -2.27421
H      1.62979     0.50974    -2.30236
O     -0.72143     3.26072     1.87033
H     -0.13026     3.31492     1.09294
O     -1.99387     3.47713     1.25626
H     -2.36518     4.15414     1.82939
O      1.08088    -2.52300     1.02458
H      1.43660    -1.60719     1.00121
O     -0.19470    -2.27814     1.63989
H      0.04428    -1.85685     2.48101
O      0.72355     2.94559    -0.38379
H      0.21353     2.21194    -0.79095
O      1.93689     2.31446     0.03464
H      2.32471     2.01686    -0.80820
