 20
-758.2986708601682
O     -1.01606    -0.24129     1.70506
H     -1.82301     0.13909     1.32325
O     -0.91013    -1.45310     0.93728
H      0.03664    -1.43483     0.70974
O      1.97973    -1.82073    -0.77052
H      2.46567    -1.03881    -1.07955
O      1.75606    -1.44495     0.59033
H      2.25999    -2.10644     1.07770
O      0.75729     1.50667     0.66336
H      0.19719     0.86739     1.14850
O     -0.20629     2.13396    -0.19604
H      0.18018     1.94602    -1.06250
O      2.18683     1.54812    -2.14833
H      2.70964     2.34574    -2.27859
O      2.85147     0.96316    -1.02070
H      2.21485     1.16855    -0.30594
O     -3.25136    -0.36522    -0.15468
H     -2.66643    -1.12791    -0.25065
O     -4.26552    -0.92487     0.68803
H     -5.03405    -0.85975     0.11293
