 36
-1364.9737631560115
O      1.73412     2.74981     1.70493
H      0.95627     2.18874     1.88273
O      2.58668     1.76983     1.09919
H      3.30053     1.67225     1.73933
O      1.19306    -2.74545     2.02228
H      1.72203    -2.57988     1.23128
O      0.02636    -1.96697     1.72531
H     -0.61141    -2.64970     1.46402
O     -0.23635     0.95188     1.60921
H     -0.94397     0.30319     1.79149
O     -0.92761     1.83313     0.71345
H     -0.42275     1.72340    -0.12244
O      0.08255     1.43355    -1.70426
H     -0.57672     0.85424    -2.13239
O      0.07954     2.62851    -2.49295
H      1.00398     2.88018    -2.34074
O     -1.03110    -1.66359    -1.33229
H     -0.19041    -1.27905    -0.99463
O     -1.71466    -0.55024    -1.92187
H     -2.33372    -0.29712    -1.21046
O     -2.50208    -0.39420     1.33110
H     -2.92861    -1.25633     1.18063
O     -3.08441     0.38177     0.26234
H     -2.55116     1.18884     0.37699
O      3.02341     1.08035    -2.07651
H      2.15837     0.79291    -2.39624
O      2.67455     2.35202    -1.51562
H      2.59810     2.15240    -0.55967
O      1.24906    -0.67822    -0.38362
H      0.99893    -0.41976     0.52408
O      2.62845    -1.02319    -0.24682
H      3.02508    -0.27838    -0.72422
O     -2.18737    -3.24289     0.44486
H     -1.92364    -2.72051    -0.34075
O     -3.52271    -2.78431     0.63665
H     -3.90879    -3.53129     1.10304
