 28
-1061.6430196710128
O     -2.76210    -1.31954    -0.37711
H     -3.70970    -1.48717    -0.40369
O     -2.26887    -2.34787     0.47405
H     -1.70737    -2.82676    -0.15519
O      2.07723     0.33921    -0.46563
H      1.50705     0.91993    -0.99649
O      1.22571    -0.77494    -0.19801
H      0.63509    -0.47279     0.52763
O      0.42872    -0.52537     2.68087
H      0.75826     0.39520     2.71051
O     -0.56817    -0.35572     1.66432
H      0.29847    -4.11316    -1.71794
O      1.17420     3.02261    -0.88717
H      1.84917     3.16054    -0.20812
O      0.02180     2.90113    -0.04419
H     -0.45322     2.16446    -0.47957
O     -1.21761     0.44191    -2.41473
H     -0.90798    -0.47536    -2.42152
O     -1.20689     0.74364    -1.02413
H     -1.85543     0.10726    -0.66487
O      0.10140    -2.27793    -2.09281
H      0.60667    -1.79554    -1.39947
O     -0.30404    -3.44566    -1.37419
H     -1.09619    -1.16073     1.75817
O      2.37012     2.08249     1.53686
H      2.33923     1.28235     0.98214
O      1.11422     2.02135     2.21497
H      0.52811     2.38226     1.52075
