 28
-1061.648930097681
O      1.82622    -1.73526     1.03909
H      1.04343    -2.31116     0.95020
O      1.21363    -0.61953     1.71747
H      1.58140     0.14284     1.22116
O     -0.99254    -2.06713    -0.50645
H     -0.21511    -2.08331    -1.09671
O     -0.54774    -2.87525     0.58988
H     -1.15163    -2.54955     1.28690
O     -1.98328    -1.52664     2.35833
H     -2.72632    -1.07029     2.76717
O     -1.03073    -1.61681     3.41346
H      1.70016     1.01101    -0.89233
O     -1.18778     3.38682    -1.62931
H     -1.56215     4.02047    -2.24726
O      0.21708     3.56858    -1.84936
H      0.54631     3.22898    -0.99578
O     -1.28147     0.74686    -1.39410
H     -1.31819     1.72817    -1.44008
O     -1.22282     0.52052     0.02137
H     -1.17319    -0.45894     0.01394
O      0.82924     2.15489     0.36631
H      0.06844     1.53632     0.39003
O      1.91995     1.30853     0.01112
H     -0.28288    -1.16022     2.99941
O      1.26979    -1.45950    -1.82034
H      1.83798    -1.41718    -1.03502
O      1.13789    -0.08174    -2.18368
H      0.18152     0.07348    -2.05307
