 24
-909.9735110598125
O     -1.41578    -2.00471    -0.79472
H     -1.82960    -1.16051    -1.01433
O     -0.05896    -1.63374    -0.56547
H     -0.03012    -1.61921     0.41368
O     -1.05922     0.79482     1.19290
H     -1.44430     1.25351     0.42085
O      0.27804     1.31088     1.17732
H      0.78544     0.49011     1.28100
O      0.24364     0.56819    -1.99829
H      0.29816    -0.24355    -1.44494
O      1.11124     1.50123    -1.35584
H      0.76793     1.54673    -0.44026
O     -2.90433     0.81954    -1.49131
H     -3.59701     1.34927    -1.89869
O     -1.93049     1.81430    -1.17143
H     -1.16802     1.51881    -1.72100
O     -0.71206    -1.37492     2.97082
H     -1.06129    -0.51984     2.67825
O      0.37932    -1.48756     2.04459
H      1.13906    -1.63061     2.62154
O      3.50577    -0.00817    -0.36926
H      2.97853     0.61431    -0.89432
O      2.47457    -0.62989     0.41107
H      2.34460    -1.47127    -0.04675
