 36
-1364.979377052578
O      0.93083     2.44683    -1.16892
H      1.18072     1.93909    -0.36921
O     -0.36476     2.95642    -0.84389
H     -0.92630     2.43925    -1.45399
O     -1.72114    -1.11060     2.51448
H     -1.56050    -2.05202     2.34976
O     -1.93165    -0.99546     3.91755
H     -1.01968    -0.85738     4.21692
O      1.73851    -0.59186    -1.37115
H      1.46656    -0.24938    -2.24467
O      2.08850    -1.94306    -1.65133
H      1.19625    -2.34068    -1.61792
O     -1.80178     1.27505    -2.36986
H     -1.20530     1.14289    -3.11937
O     -1.53433     0.11166    -1.59374
H     -1.77477     0.41348    -0.69082
O      1.16972     0.40288    -3.75957
H      1.80993     0.42543    -4.47831
O      0.65586     1.73265    -3.74259
H      0.93051     2.02465    -2.85055
O      0.74294     0.07879     1.32551
H      0.08341     0.79242     1.49404
O      1.86460     0.80019     0.80318
H      2.11237     0.18025     0.08394
O     -2.04869     0.94642     0.89484
H     -2.03921     0.23103     1.57325
O     -1.15761     1.89369     1.48625
H     -0.97955     2.48935     0.72831
O      0.97848    -1.04954     3.75233
H      1.01064    -0.70901     2.83511
O      1.09509    -2.45623     3.52949
H      1.88474    -2.66273     4.04077
O     -0.53331    -2.39226    -1.39039
H     -0.92535    -1.52947    -1.62033
O     -0.70204    -2.40213     0.02611
H     -0.02455    -1.76804     0.31333
