 32
-1213.3123807337734
O      2.09956     1.75321    -1.49745
H      1.53439     2.11075    -0.77618
O      1.24971     1.99787    -2.61845
H      1.71887     2.69798    -3.08443
O     -0.20027    -3.49309     0.27601
H      0.38473    -3.04336    -0.34704
O     -1.13432    -2.45440     0.54516
H     -0.83682    -2.08880     1.40430
O     -0.79849     0.31978    -2.17120
H     -0.18949     1.02233    -2.46578
O     -1.68733     1.06717    -1.34078
H     -2.43979     0.45783    -1.28371
O      0.62483     2.29845     1.59847
H     -0.02825     1.61062     1.84481
O      0.29016     2.59842     0.24575
H     -0.47994     2.03866     0.05877
O      2.13440    -1.07718    -1.88480
H      2.55665    -0.23297    -1.66555
O      1.11139    -1.09584    -0.89843
H      0.33921    -0.70118    -1.35760
O      1.84662    -0.33389     1.52255
H      1.63338    -0.56499     0.59296
O      2.81056     0.70076     1.33260
H      2.23882     1.47534     1.47452
O     -1.13236     0.35295     2.03962
H     -1.96025    -0.00364     1.65156
O     -0.51806    -0.81366     2.58956
H      0.42980    -0.62440     2.40828
O     -3.16322    -1.03822    -0.36512
H     -2.39177    -1.62196    -0.19497
O     -3.42536    -0.57829     0.96031
H     -4.03824    -1.23645     1.30274
