 32
-1213.3041528962474
O      0.95616    -1.20850     1.57127
H      0.26187    -0.52486     1.62027
O      2.09161    -0.43683     1.16915
H      2.37639    -0.89859     0.36921
O      0.31259    -2.57133    -1.41057
H      0.88459    -1.88736    -1.80125
O      1.19357    -3.19051    -0.47673
H      0.86346    -2.84113     0.36275
O     -4.43288    -0.54341     0.31683
H     -4.63779    -1.48045     0.38686
O     -4.35265    -0.16455     1.69607
H     -3.48464     0.26219     1.70760
O     -0.82739     0.91122     1.70708
H     -0.58086     1.52360     0.97745
O     -2.10003     1.42646     2.08238
H     -1.94074     1.65153     3.00161
O      1.78321    -0.44315    -2.28356
H      1.20991     0.31005    -2.01018
O      3.02874    -0.12390    -1.67631
H      3.63651    -0.29955    -2.39999
O      2.72079     2.16048     0.80656
H      2.37731     1.26578     0.97444
O      2.60620     2.29996    -0.60428
H      2.92996     1.44676    -0.93755
O     -0.06539     1.26077    -1.50025
H     -0.83236     0.70550    -1.21427
O     -0.01897     2.25044    -0.46475
H      0.93310     2.50037    -0.49530
O     -1.65242    -1.49851     0.02689
H     -1.07096    -1.99156    -0.58811
O     -2.02060    -0.37513    -0.78926
H     -2.95539    -0.27691    -0.51126
