 36
-1364.9758072990746
O      2.54743     0.22691    -0.62790
H      2.45794     1.06591    -0.13519
O      1.23781    -0.28029    -0.36721
H      1.41879    -1.21757    -0.12586
O      0.55822     2.99175    -0.32542
H      0.59720     2.42644    -1.11287
O      1.50335     2.36563     0.54289
H      0.93947     1.96394     1.24083
O     -1.81313    -0.78132    -0.29754
H     -1.32606    -1.14495    -1.07566
O     -1.25546     0.53174    -0.23736
H     -0.29299     0.31644    -0.21594
O      1.32224     1.40668    -2.79172
H      1.88824     0.78159    -2.30341
O      0.56239     0.54411    -3.62949
H      0.92746     0.71075    -4.50481
O      0.68804    -2.58356    -2.40729
H      0.35913    -3.23153    -1.77348
O     -0.34930    -1.61091    -2.32710
H      0.04031    -0.87067    -2.82907
O     -1.45761    -2.37242     1.83868
H     -1.66698    -1.72604     1.12906
O     -0.73477    -1.57558     2.77466
H     -1.42915    -1.12040     3.27042
O     -2.65876     2.77147     0.44069
H     -2.28269     1.91461     0.17125
O     -1.60284     3.28820     1.25101
H     -0.87158     3.36520     0.60537
O      1.59206    -2.73090     0.53769
H      2.35019    -3.31673     0.64819
O      0.51302    -3.64721     0.33625
H     -0.12014    -3.33035     1.00798
O     -1.08894     1.20990     2.85733
H     -1.33412     2.00394     2.32542
O      0.26716     1.00328     2.42567
H      0.25600     0.05269     2.23431
