 32
-1213.3146878915768
O      2.22141     0.46555     1.72349
H      1.89626    -0.02699     0.95148
O      2.93537     1.54113     1.10519
H      2.27487     2.24964     1.21092
O      0.54229    -1.36533     0.12005
H     -0.15021    -1.19764     0.78985
O      0.04832    -2.54723    -0.51435
H     -0.29321    -2.16154    -1.34053
O      0.38560    -0.60679    -3.26947
H      0.04427    -0.43532    -4.15218
O     -0.78342    -0.96228    -2.54272
H     -1.00070    -0.13183    -2.05882
O     -1.50070     1.14840    -1.08076
H     -1.83385     0.87753    -0.19822
O     -0.51314     2.10709    -0.71240
H      0.30443     1.66580    -1.02187
O      1.72180     0.94569    -1.53046
H      1.48268     0.21502    -2.12892
O      3.14712     0.93762    -1.54424
H      3.30973     1.18008    -0.61931
O     -2.01037     0.50457     1.44132
H     -1.38231     1.05729     1.95278
O     -1.50246    -0.79998     1.73618
H     -2.21409    -1.37832     1.39501
O     -2.09924    -3.49769     0.78124
H     -1.27622    -3.25716     0.30759
O     -2.96478    -2.47667     0.27562
H     -3.71083    -2.99436    -0.04274
O      0.08090     1.77216     2.51663
H      0.81724     1.12847     2.49147
O      0.61727     2.76654     1.63997
H      0.07063     2.63639     0.84255
