 32
-1213.3018064534422
O      2.46058     1.99185     0.03315
H      2.24451     1.36327    -0.68548
O      3.33382     1.21813     0.85595
H      4.18238     1.25290     0.40053
O     -0.13020    -1.37754    -1.00679
H     -0.95264    -1.01397    -1.38835
O     -0.53032    -2.60122    -0.38515
H     -0.69784    -2.29474     0.52773
O     -1.67053     0.29091    -2.70329
H     -0.81623     0.70667    -2.87069
O     -2.38359     1.38342    -2.11395
H     -2.75042     0.95576    -1.32173
O      0.18382     1.48058     1.84541
H      0.98134     1.95412     1.56357
O     -0.34868     1.11216     0.57009
H      0.03086     0.22229     0.43597
O      1.24548     0.69371    -2.88701
H      1.63236     0.25714    -3.65114
O      1.91892     0.04787    -1.81254
H      1.20540    -0.55270    -1.49819
O      2.65079    -1.88398     0.47730
H      2.00585    -2.36048    -0.06009
O      1.78739    -0.90546     1.07980
H      2.37545    -0.12213     1.09812
O     -1.52680    -0.92358     3.18592
H     -2.02265    -0.29311     2.64569
O     -0.80237    -1.64188     2.20133
H      0.09059    -1.27066     2.27711
O     -2.90138     0.99634     1.21044
H     -1.98427     1.16425     0.89820
O     -3.40844     0.20322     0.12596
H     -4.35688     0.31245     0.24813
