 28
-1061.6488373791972
O      0.97795    -0.44488    -3.06632
H      1.49283    -0.18710    -3.83651
O      1.78233     0.02083    -1.98853
H      1.31868     0.85295    -1.73292
O      0.40866    -1.00272     3.16852
H     -0.35450    -1.21815     2.59937
O      1.19721    -0.22568     2.26691
H      1.49956    -0.88931     1.61958
O      0.23627     2.12125     1.48943
H      0.49179     1.25293     1.87336
O     -1.19221     2.07629     1.52365
H      0.77743     2.30453    -0.12875
O     -0.87078    -0.97987    -1.22774
H     -0.28881    -0.92031    -2.00463
O     -1.90010    -0.03638    -1.55352
H     -2.38237    -0.08170    -0.70676
O     -2.33752    -0.33218     1.04931
H     -1.87458     0.42451     1.45421
O     -1.45530    -1.42723     1.30093
H     -1.01977    -1.50362     0.43427
O     -0.78186     2.39306    -1.13573
H     -1.07988     1.50400    -1.40821
O      0.64091     2.25122    -1.09704
H     -1.36255     2.43018     0.63578
O      1.98734    -1.71328     0.14690
H      1.97495    -1.18529    -0.67021
O      1.14131    -2.79601    -0.21469
H      1.73399    -3.53880    -0.07525
