 16
-606.6377999146877
O     -1.29911    -0.85919     1.31544
H     -1.93787    -1.26400     1.91057
O     -1.74494     0.50530     1.31982
H     -0.90758     0.95653     1.50303
O      0.84525     1.81222     1.11796
H      0.95559     1.54960     0.17762
O      1.67533     0.81463     1.73478
H      2.51436     1.27919     1.80332
O      1.27164     0.54418    -1.18350
H      0.49662    -0.00696    -1.40070
O      2.17374    -0.44943    -0.67286
H      1.95129    -0.40985     0.26736
O     -0.85361    -1.12397    -1.42780
H     -1.22688    -1.09428    -0.52721
O     -2.00877    -0.96438    -2.25307
H     -1.97213    -1.77851    -2.76264
