 36
-1364.97816789036
O      0.78999     1.35924     0.46078
H      0.13814     1.36749    -0.27735
O      2.00754     1.49997    -0.27247
H      2.56847     0.88177     0.21761
O     -0.66131    -1.90605    -1.00732
H     -1.27950    -1.18266    -1.20238
O     -1.37569    -2.72118    -0.08476
H     -1.23038    -2.22179     0.73987
O     -1.63053     0.17444     1.48319
H     -1.40394     0.85722     2.13935
O     -0.72405    -0.88182     1.77188
H      0.10287    -0.57412     1.34967
O      2.13862    -1.03670     0.97485
H      1.94767    -1.98437     0.82860
O      3.35118    -0.89413     0.22411
H      3.00383    -1.09988    -0.66739
O     -0.46808     2.73235     2.35207
H      0.20936     2.39851     1.73186
O     -0.95654     3.85631     1.61879
H     -1.01762     4.52072     2.31003
O     -2.68951     2.92239    -0.33447
H     -2.26044     3.26007     0.47121
O     -3.63007     1.97117     0.15546
H     -3.07436     1.18470     0.26461
O      1.77252    -1.26594    -1.86018
H      0.91117    -1.52588    -1.47539
O      1.46864    -0.01375    -2.46725
H      1.75300     0.61784    -1.78123
O     -0.81393     1.55995    -1.61051
H     -1.63398     2.07723    -1.43975
O     -1.27676     0.46035    -2.39732
H     -0.46738     0.29504    -2.89757
O      1.86496    -3.53372     0.16520
H      2.56602    -4.17342    -0.00150
O      0.85635    -4.30425     0.81524
H      0.10914    -4.12535     0.22708
