 24
-909.9810499949609
O     -1.49084    -1.41956     0.17697
H     -2.11812    -0.78421    -0.19464
O     -1.57827    -1.06817     1.56086
H     -0.68645    -1.30054     1.87858
O      0.49402    -1.24908    -1.58216
H     -0.19569    -1.40021    -0.90696
O     -0.09206    -0.16834    -2.31705
H      0.29832     0.58923    -1.83805
O      2.53405    -1.03684     0.13514
H      1.91199    -1.01667    -0.62016
O      2.84560     0.34928     0.31514
H      2.70703     0.41125     1.27416
O     -3.07364     2.00003    -1.51321
H     -3.99669     1.75094    -1.61028
O     -2.49774     0.74443    -1.16846
H     -1.93764     0.55035    -1.93848
O      1.43407     0.00843     2.60147
H      0.71152     0.50405     2.19202
O      1.03959    -1.34230     2.32604
H      1.55609    -1.50006     1.51124
O      0.73644     1.71820    -0.63106
H      1.59456     1.34355    -0.35179
O     -0.08455     1.31545     0.47558
H     -0.96453     1.34292     0.07538
