 16
-606.6354696048254
O     -2.59170     0.17523     0.90830
H     -3.41280     0.04160     1.39031
O     -1.63048     0.05938     1.96554
H     -0.91536     0.59820     1.59400
O      0.62030     1.14934     0.74160
H      1.06442     1.69962     0.07024
O      1.29967    -0.09372     0.49162
H      0.58601    -0.58517     0.04159
O      1.97273     1.95922    -1.39704
H      1.44432     1.84745    -2.19275
O      2.87103     0.83817    -1.48722
H      2.52899     0.31078    -0.74396
O     -0.85964    -1.23233    -0.61725
H     -1.61232    -0.92576    -0.07517
O     -0.99110    -2.65381    -0.53846
H     -1.14922    -2.86255    -1.46205
