 32
-1213.3133848716468
O      2.82043     0.45698     1.07776
H      1.93584     0.87348     1.05968
O      2.71714    -0.43074    -0.03450
H      2.66532     0.20465    -0.77180
O     -3.10500     0.18445    -0.65995
H     -4.04643     0.37937    -0.70757
O     -2.69806     1.02503     0.41174
H     -2.55222     0.36945     1.13466
O     -1.56984     1.02575    -2.82151
H     -2.06679     0.67796    -2.06586
O     -0.44516     0.13277    -2.86806
H      0.28782     0.75740    -2.99764
O      2.55805     1.53970    -1.79512
H      3.20028     2.25676    -1.83114
O      1.35817     2.16672    -2.22645
H      0.85220     2.22804    -1.39231
O      0.24954     0.95651     0.83016
H      0.01925     0.14655     0.31695
O     -0.23017     1.98935    -0.03780
H     -1.19466     1.84362     0.03584
O      0.69712    -2.15366    -0.61237
H      1.44226    -1.61966    -0.26591
O     -0.36018    -1.18897    -0.56940
H     -0.38283    -0.83911    -1.49608
O      0.98933    -2.53397     2.61704
H      0.11718    -2.65761     2.21524
O      0.92608    -1.14387     2.96918
H      1.74377    -0.79505     2.58254
O     -1.81254    -1.99966     1.62203
H     -1.43438    -1.74403     0.76167
O     -1.95008    -0.73710     2.27948
H     -1.08341    -0.63042     2.70601
