 32
-1213.30393067323
O      2.87456    -1.19818     0.24231
H      2.41527    -0.69764    -0.46595
O      2.14577    -2.42437     0.19678
H      2.82332    -3.05451    -0.06557
O     -0.21046    -2.24047    -1.09518
H      0.60091    -2.28621    -0.54709
O     -1.09309    -3.13322    -0.40855
H     -1.47669    -2.53073     0.26420
O      0.87543     0.87670     2.91701
H      0.97724     1.75402     2.52045
O      0.74183     0.04374     1.76623
H      1.62620    -0.34363     1.64847
O      1.33038     0.28201    -1.34307
H      0.53020     0.30348    -1.91744
O      1.98808     1.50059    -1.65590
H      1.72833     2.04370    -0.89749
O      0.45174     3.62374     1.34664
H     -0.17590     3.00698     0.91193
O      1.51912     3.64715     0.39835
H      1.34936     4.46489    -0.08026
O     -1.86345    -0.46692    -2.05563
H     -1.31241    -1.19949    -1.67429
O     -0.88302     0.20268    -2.85054
H     -1.01867    -0.17900    -3.72268
O     -1.98701    -1.38596     1.43149
H     -2.09536    -0.45112     1.15649
O     -3.31952    -1.87367     1.31857
H     -3.30546    -2.54333     2.00582
O     -0.75138     1.54880     0.20305
H     -0.24156     0.85041     0.68104
O     -2.08129     1.03772     0.26799
H     -2.19071     0.70996    -0.64246
