 16
-606.6420450835759
O     -1.63224    -0.78026     1.32328
H     -1.45830    -1.24167     0.49161
O     -1.67662     0.58219     0.87608
H     -0.83911     0.93009     1.22812
O      1.22411     1.77006     0.17329
H      1.51560     0.93847    -0.25181
O      0.86968     1.27334     1.47118
H      1.39508     1.83483     2.04951
O      1.61107    -0.76075    -0.75240
H      0.78441    -0.92138    -1.23946
O      1.44434    -1.61628     0.38709
H      1.28401    -0.96554     1.08400
O     -1.15962     0.48996    -1.79782
H     -1.48522     0.64711    -0.88882
O     -0.90675    -0.92015    -1.72995
H     -1.41749    -1.25013    -2.47566
