 20
-758.3034986524584
O     -0.18401    -1.80170     1.87900
H      0.03337    -1.03044     2.43866
O      1.09207    -2.33276     1.53604
H      1.28414    -1.86278     0.71214
O      1.64717    -0.23476    -0.53946
H      0.74238     0.10815    -0.38651
O      1.79655    -0.06384    -1.95188
H      2.43332     0.65686    -1.98964
O     -1.24547     0.74397     2.70430
H     -1.16558     0.88933     1.75381
O      0.14066     0.60851     3.03616
H      0.13833     0.86926     3.96167
O     -0.89136     0.50766    -0.14176
H     -1.11703     0.87701    -1.01145
O     -1.32553    -0.84912    -0.32588
H     -0.98236    -1.25330     0.50101
O     -0.30820     2.11722    -3.25966
H     -0.76486     2.15567    -4.10561
O     -0.65788     0.80082    -2.82909
H      0.22039     0.39060    -2.74883
