 36
-1364.9779856505813
O     -0.03590     2.25601     1.76983
H     -0.88136     2.74150     1.68966
O     -0.34314     1.22933     2.71662
H      0.45047     0.67110     2.63195
O     -2.29882     0.48860    -1.30564
H     -1.70731     1.25395    -1.37246
O     -3.12714     0.82022    -0.19225
H     -2.83979     0.17456     0.48033
O      1.34819    -0.77228     2.20525
H      0.74596    -1.50462     2.40987
O      2.63690    -1.37166     2.26993
H      2.83595    -1.45249     1.32906
O      0.36365     1.44147    -1.57864
H      0.99373     0.92966    -2.14419
O      0.61250     0.75248    -0.34078
H      0.41355     1.43298     0.33931
O     -1.32540    -1.76569     2.05842
H     -1.18446    -2.02788     1.13845
O     -2.14170    -0.60722     1.89542
H     -1.59692     0.08144     2.32164
O     -1.55468     3.61035    -0.18769
H     -1.51014     4.55348    -0.01068
O     -2.39259     3.17208     0.88189
H     -2.82298     2.40653     0.45426
O      2.03562    -0.16934    -2.80140
H      2.46541    -0.81636    -2.21631
O      1.19990    -0.98136    -3.62551
H      0.46905    -1.19346    -3.01983
O     -0.67454    -1.58746    -1.69641
H     -1.25876    -0.82248    -1.50977
O      0.02518    -1.75741    -0.46657
H      0.29871    -0.82803    -0.27681
O      3.08656    -1.80790    -0.84602
H      3.98357    -2.14806    -0.89538
O      2.32493    -3.00457    -1.06724
H      1.43023    -2.67265    -0.85634
