 12
-454.9720019905564
O     -0.03567    -0.88248     0.67977
H      0.84763    -0.96902     0.28064
O     -0.03502     0.53298     0.93965
H     -0.76953     0.79790     0.36237
O      2.44670    -0.60623    -0.39719
H      2.42120    -0.40300    -1.33862
O      2.84114     0.65354     0.16666
H      2.00589     0.92789     0.57545
O     -2.38460     0.71798    -0.44545
H     -3.13987     0.81762     0.14388
O     -2.51832    -0.64541    -0.87297
H     -1.81117    -1.06078    -0.35572
