 36
-1364.971966556233
O     -0.06500     2.22872     0.30223
H     -1.00366     2.30936     0.00691
O      0.42511     3.55414     0.09382
H      0.52519     3.50618    -0.86764
O     -2.51048     1.06134    -1.49330
H     -1.67241     1.28394    -1.94042
O     -2.63155     2.13953    -0.55028
H     -3.10219     1.65472     0.15100
O     -0.80821    -2.36067    -1.50692
H     -1.59238    -2.91237    -1.58689
O     -0.25738    -2.84769    -0.29001
H     -0.50115    -2.16250     0.36217
O      1.53727    -0.04192    -1.01431
H      1.63843    -0.23141    -0.05454
O      2.73092    -0.56115    -1.59855
H      2.56958    -1.51420    -1.49055
O     -0.09377     1.13608     2.69908
H     -0.00574     1.59523     1.82300
O     -1.46216     1.35948     3.02875
H     -1.40370     2.10459     3.63349
O     -2.28876    -0.81034     0.64566
H     -2.30957    -0.54932    -0.28868
O     -3.09929     0.21772     1.22541
H     -2.51975     0.52835     1.94027
O      0.78990     2.59524    -2.42317
H      1.65732     2.21255    -2.24554
O     -0.03177     1.42777    -2.51052
H      0.47379     0.79531    -1.94629
O      2.34357    -3.15683    -0.81536
H      1.39021    -3.13888    -0.59215
O      2.90415    -3.21423     0.49701
H      3.84172    -3.25438     0.28641
O      0.50506    -1.37533     2.00643
H      0.23121    -0.53809     2.42554
O      1.79015    -0.99440     1.51215
H      2.17297    -1.87172     1.32273
