 32
-1213.3047896881176
O      1.32818    -2.04449     1.27028
H      1.37725    -1.17541     1.72006
O     -0.03792    -2.40586     1.50656
H     -0.29382    -2.85357     0.67597
O      1.45459    -0.55689    -0.95424
H      1.49239    -1.33184    -0.35411
O      1.83684    -1.07175    -2.22326
H      1.05585    -1.59658    -2.44707
O     -2.46016     0.03997    -1.08260
H     -2.25402    -0.15682    -0.14846
O     -1.24521    -0.33481    -1.74020
H     -0.62839     0.35104    -1.40279
O     -1.40837     2.45957     0.05070
H     -2.10655     1.99771    -0.43458
O     -0.27105     1.73361    -0.45033
H      0.39793     2.44751    -0.49687
O      1.49231     3.75192    -0.51036
H      1.25819     4.63780    -0.80359
O      2.07527     4.00529     0.77664
H      2.36051     3.10419     0.98784
O     -1.09725    -2.86747    -0.97598
H     -1.21185    -1.92648    -1.27531
O     -0.23837    -3.39960    -1.98391
H     -0.86340    -3.85765    -2.55254
O     -2.83555    -0.81017     1.95937
H     -2.92594    -0.31617     2.77752
O     -1.60741    -0.27568     1.46710
H     -1.02300    -1.06792     1.56516
O      2.26123     1.09734     1.00493
H      2.10873     0.61051     0.17067
O      1.23159     0.56964     1.84696
H      0.42232     0.80959     1.35931
