 40
-1516.6401080934731
O      0.51179     2.81516    -1.14954
H     -0.17147     3.03207    -0.47425
O      0.84625     1.50721    -0.69643
H      0.02419     1.03840    -0.94996
O     -1.62729     0.06716     1.08051
H     -0.96631    -0.44572     0.55483
O     -2.82895    -0.65744     0.77421
H     -2.82461    -1.28147     1.52058
O      2.64001    -0.56509     1.08182
H      1.90223    -0.92355     1.61636
O      2.46831     0.83551     1.32583
H      1.89756     1.11438     0.57736
O     -1.88244    -2.24851     2.70278
H     -1.63529    -2.65518     3.54043
O     -2.06454    -3.37519     1.84891
H     -1.40787    -3.18285     1.16192
O     -0.74036     2.97065     2.08594
H     -0.32843     2.13501     2.34691
O     -1.29026     2.67026     0.80540
H     -1.55626     1.72670     0.87718
O      3.35267    -1.16276    -1.49914
H      3.22392    -0.99289    -0.55085
O      2.00232    -1.01787    -1.96200
H      2.05904    -0.20416    -2.49106
O     -1.27381     0.53592    -1.88663
H     -1.02316     0.69071    -2.82256
O     -2.00333    -0.69569    -1.94394
H     -2.60034    -0.54337    -1.19803
O      0.09948    -1.42821    -0.19917
H      0.82085    -1.28610    -0.87111
O     -0.55521    -2.59925    -0.69555
H     -1.15270    -2.15772    -1.32579
O      0.68509    -0.72108     2.81143
H     -0.25126    -0.74712     2.55193
O      0.81324     0.59639     3.35860
H      1.58258     0.90112     2.83425
O     -0.12761     1.30906    -4.17067
H      0.16866     1.22326    -5.08129
O      1.11674     1.37888    -3.47203
H      0.92728     2.10019    -2.84661
