 36
-1364.974376832572
O     -0.62063     0.56407     2.57858
H     -1.46268     0.10604     2.74512
O     -0.62146     1.63465     3.52530
H     -0.90449     2.36393     2.95364
O     -3.13360    -0.49231     1.60991
H     -2.49610    -0.99666     1.06740
O     -3.40417     0.60045     0.74064
H     -4.35188     0.52372     0.59358
O      1.52650    -1.02936     2.84933
H      0.77892    -0.41021     2.75849
O      1.47250    -1.72446     1.59908
H      2.14135    -1.22603     1.08605
O     -0.52444     1.67712    -1.48389
H      0.12007     1.38246    -2.16519
O      0.23867     1.39471    -0.30406
H     -0.23311     1.95430     0.34466
O     -0.93096    -1.71223     0.59911
H     -0.04773    -1.75881     1.05522
O     -0.56898    -1.11895    -0.65648
H     -0.25918    -0.20663    -0.44386
O     -1.76658     2.69768     0.96954
H     -2.43166     1.97811     0.94678
O     -2.32040     3.65895     0.07857
H     -1.87526     3.41436    -0.74539
O      1.46653     0.73906    -2.94622
H      2.21749     0.25485    -2.53986
O      1.00820    -0.14123    -3.96741
H      0.93239    -0.98435    -3.50240
O      1.35540    -2.78039    -1.25360
H      0.51936    -2.28935    -1.05888
O      1.19729    -3.07627    -2.64143
H      1.09768    -4.03275    -2.62542
O      2.79004    -0.12616    -0.05233
H      2.11243     0.54292    -0.24517
O      3.05886    -0.68226    -1.34663
H      2.63603    -1.56084    -1.26776
