 20
-758.2988463380757
O      0.97188    -1.84632     1.97037
H      1.38244    -2.10380     2.80003
O      0.01809    -0.88237     2.42663
H     -0.66364    -0.97995     1.73714
O     -1.20028     0.34524     0.01086
H     -0.39027     0.01158    -0.42301
O     -1.80979    -0.88598     0.42950
H     -2.74060    -0.65980     0.25913
O      1.76498     0.00061     0.19741
H      1.52729    -0.70966     0.82342
O      1.13873    -0.48457    -0.99981
H      1.80156    -0.19958    -1.65354
O      3.16459     0.63619    -2.38848
H      3.00573     1.44851    -2.88032
O      4.00704     1.09546    -1.32112
H      3.41822     0.94849    -0.56686
O     -4.19576     0.26689    -0.08044
H     -4.73099     0.57412     0.65859
O     -3.77901     1.50360    -0.67867
H     -2.82831     1.46575    -0.49743
