 32
-1213.302005340654
O      0.36788     3.33014    -0.60608
H      0.70201     2.90300    -1.40983
O      1.55140     3.41543     0.20313
H      1.48267     2.61046     0.74610
O      0.25828    -2.90493     1.16085
H     -0.09043    -2.14352     1.64711
O     -0.16476    -2.60002    -0.16698
H      0.67747    -2.42715    -0.62067
O     -1.28930     1.63000     0.51069
H     -0.76028     2.39867     0.18934
O     -1.92382     1.23121    -0.71714
H     -2.28614     0.35688    -0.45344
O      1.21791     0.07568     0.63747
H      0.65806     0.48796    -0.04548
O      1.30969     1.07066     1.67251
H      0.69586     0.66567     2.30792
O      2.63479    -1.71932    -0.70712
H      2.30951    -1.04479    -0.08386
O      3.14262    -0.87987    -1.75416
H      3.27481    -1.52934    -2.45105
O      1.11768     0.97044    -2.10590
H      1.89344     0.38708    -2.02041
O      0.06304    -0.00234    -2.10797
H     -0.71246     0.52825    -1.84215
O     -1.80398    -0.16673     2.50106
H     -1.60439     0.52323     1.84219
O     -0.48247    -0.49015     2.94566
H     -0.62880    -0.69455     3.87247
O     -3.18671    -1.94425    -1.21839
H     -3.81864    -2.44932    -0.70254
O     -2.47185    -1.29624    -0.17403
H     -1.60104    -1.76839    -0.20958
