 16
-606.6331429698932
O     -0.78346     0.50680     0.65527
H     -1.16456     0.95213    -0.12435
O      0.53544     0.24630     0.12876
H      1.05796     0.31909     0.93934
O      1.91864    -0.83248     3.20567
H      2.64959    -0.61089     3.79402
O      1.46423     0.47349     2.83494
H      0.58685     0.49341     3.23290
O     -0.12390     2.12655    -2.19644
H      0.48039     1.83706    -1.49852
O     -1.30367     1.39953    -1.84921
H     -1.15462     0.53667    -2.26643
O     -0.59238    -1.43305    -1.88690
H     -0.22404    -1.19566    -1.02144
O     -1.46283    -2.51425    -1.54576
H     -0.99913    -3.25901    -1.94074
