 16
-606.6435104986626
O     -0.86030    -1.61473     1.02339
H     -1.14216    -1.33058     0.13410
O     -1.63008    -0.68628     1.80471
H     -0.90907    -0.11602     2.11472
O      0.58306     0.81944     1.66033
H      0.21400     1.18669     0.84463
O      1.42703    -0.22343     1.14699
H      0.77296    -0.94706     1.08361
O      1.16647    -0.18604    -2.13008
H      1.63493    -0.15671    -2.96958
O      1.89390     0.78516    -1.36486
H      1.94943     0.32757    -0.50674
O     -1.34111    -0.19280    -1.16172
H     -0.47010    -0.10070    -1.58518
O     -1.42376     1.03864    -0.42802
H     -2.00617     0.75121     0.28466
