 32
-1213.3087714747726
O      3.45243    -0.21421     0.77080
H      2.78988    -0.92059     0.80711
O      3.38648     0.13160    -0.61301
H      4.22936    -0.18798    -0.95097
O      0.79770    -1.30312     0.48546
H      0.50536    -2.13094     0.07102
O      0.93431    -1.65735     1.86452
H      0.12086    -1.24334     2.21354
O      0.84512     1.14687    -1.83312
H      1.51798     0.78909    -1.22745
O     -0.02908     0.03879    -1.99974
H     -0.74185     0.24083    -1.36497
O      1.46429     2.81370     1.57192
H      0.68011     2.88943     1.00914
O      1.34437     1.46134     2.01676
H      2.17170     1.05793     1.71443
O      0.13817    -2.64728    -2.01647
H      0.12290    -1.67713    -2.13505
O     -1.25670    -2.94623    -2.01367
H     -1.41736    -3.24300    -2.91450
O     -1.76873     1.83323    -0.40115
H     -1.71648     1.59218     0.54886
O     -0.75150     2.84195    -0.48901
H     -0.13628     2.39998    -1.10222
O     -1.27289     0.98154     2.07969
H     -0.29691     1.06214     2.17119
O     -1.45299    -0.43326     2.17986
H     -1.79458    -0.64864     1.29244
O     -2.19101    -1.05229    -0.36287
H     -2.02024    -1.76797    -1.01011
O     -3.53667    -0.68149    -0.64968
H     -3.40989     0.26732    -0.78391
