 32
-1213.3016935595926
O      1.52335    -2.85945    -1.68647
H      2.18549    -2.78047    -0.99057
O      0.82547    -1.63442    -1.46858
H     -0.11290    -1.89083    -1.47081
O     -0.69006    -1.08766     2.54109
H     -1.02867    -0.25422     2.18952
O     -0.63275    -1.88528     1.36268
H      0.32198    -1.96589     1.20953
O     -2.59984    -1.02758    -0.20463
H     -1.97521    -1.45905     0.41588
O     -1.94213    -1.28912    -1.44761
H     -1.94909    -0.41164    -1.87488
O     -2.29904     2.30568    -2.54878
H     -2.50620     2.30755    -1.60420
O     -1.57178     1.08222    -2.67068
H     -0.64205     1.36296    -2.67875
O      1.14076     1.43089     2.61380
H      1.62690     0.58970     2.57443
O      2.15520     2.39075     2.30857
H      2.06380     2.47843     1.35049
O      1.15064     0.97099    -1.72586
H      1.18842     0.00358    -1.84824
O      1.11769     1.02292    -0.29606
H      0.16360     1.12169    -0.08116
O      3.33938    -1.48143     0.55228
H      3.96679    -1.38275     1.27500
O      2.14859    -0.95820     1.13838
H      1.91287    -0.24941     0.49451
O     -2.61907     1.56288     0.38402
H     -2.78274     0.62597     0.13700
O     -1.26281     1.43886     0.81326
H     -1.16562     2.12425     1.48679
