 40
-1516.6409062147707
O      2.93019     2.67477    -0.39660
H      3.83367     2.90308    -0.62459
O      3.13116     1.56144     0.46599
H      2.52266     1.76960     1.20529
O     -1.04127    -0.68938    -0.72535
H     -0.20549    -0.20243    -0.56192
O     -1.16157    -0.73385    -2.13970
H     -1.47655     0.17091    -2.32893
O     -2.47509     1.36375     0.82817
H     -2.49642     1.78811    -0.04592
O     -3.16636     0.13561     0.56408
H     -2.47502    -0.32463     0.04081
O      0.32749     1.11033     1.07881
H     -0.57527     1.09699     1.43640
O      1.12823     1.39671     2.22727
H      1.13097     0.49793     2.62782
O     -2.57236     2.54947    -1.60404
H     -3.39504     2.73426    -2.06520
O     -1.81208     1.90510    -2.61706
H     -0.90132     2.19378    -2.37731
O      0.66989     2.09145    -1.78523
H      1.51418     2.36831    -1.37517
O      1.09445     1.21802    -2.83515
H      1.43730     0.43413    -2.35554
O      1.90929    -0.73664    -0.25177
H      2.43151     0.07255    -0.08601
O      2.16677    -0.95689    -1.64038
H      1.64840    -1.77852    -1.74224
O      0.72342    -1.12737     2.87281
H     -0.19946    -1.38109     2.65676
O      1.49353    -2.01702     2.06759
H      1.67741    -1.46000     1.28901
O      0.45212    -3.90005    -0.10232
H      0.91248    -3.41889     0.60266
O      0.53143    -2.98917    -1.19818
H     -0.30775    -2.50519    -1.16302
O     -2.72954    -1.13205     2.89430
H     -3.10026    -0.58632     2.17232
O     -1.73600    -1.83844     2.14456
H     -2.06428    -2.74434     2.12169
