 36
-1364.9805667009175
O      2.49180     1.16148     1.43351
H      2.84427     0.98081     0.54034
O      2.73761    -0.09101     2.08133
H      1.84279    -0.45302     2.11856
O     -2.43537     1.39955    -0.80751
H     -2.77911     0.49059    -0.66262
O     -1.65782     1.20764    -1.99543
H     -0.93148     1.84696    -1.86088
O     -1.09041    -1.63890     1.54995
H     -0.49126    -2.37185     1.27389
O     -0.17541    -0.54513     1.37869
H     -0.73035     0.23777     1.59506
O      3.10388    -1.58348    -0.25385
H      3.36299    -1.39160     0.65835
O      3.05286    -0.24930    -0.77393
H      2.15792    -0.23097    -1.17143
O     -4.12594    -0.65130     0.63633
H     -4.88051    -0.94771     0.12084
O     -3.06092    -1.10017    -0.19976
H     -2.41677    -1.43188     0.46219
O     -0.09092     2.74187     1.30034
H      0.66229     2.16378     1.51208
O     -1.21415     1.89018     1.51293
H     -1.67272     1.90730     0.64405
O     -0.51090    -1.19807    -1.92823
H     -1.14287    -0.49222    -2.17144
O      0.46236    -0.40514    -1.24411
H      0.17964    -0.50210    -0.30792
O      0.28609     2.95734    -1.34258
H      0.12617     3.13458    -0.39376
O      1.56707     2.33317    -1.27580
H      2.09994     2.92460    -1.81383
O      0.80972    -3.09998     0.48555
H      1.54215    -2.71192    -0.01985
O     -0.08682    -3.56379    -0.52877
H     -0.23106    -2.75931    -1.05600
