 32
-1213.3049390005235
O      1.39876    -1.97253    -1.65060
H      0.65481    -1.91334    -2.28156
O      0.88977    -2.89508    -0.68170
H      1.54483    -3.60015    -0.71339
O      0.25093    -1.63705     1.58734
H      0.45019    -2.04106     0.71518
O      1.17332    -0.54763     1.61896
H      0.61760     0.18533     1.95307
O     -0.33238    -0.15225    -3.33543
H     -0.89874    -0.11026    -2.53604
O     -0.42234    -1.54750    -3.61445
H     -0.20230    -1.56931    -4.55021
O      2.26902     3.17614     0.60755
H      1.91931     2.46407     0.03601
O      1.03297     3.72666     1.09409
H      1.24274     3.86290     2.02179
O     -1.71072    -0.10731    -1.05367
H     -1.22263     0.29098    -0.31475
O     -1.80868    -1.48749    -0.70131
H     -2.35481    -1.45322     0.09961
O      2.06906     0.95105    -1.99077
H      1.33929     0.73459    -2.58742
O      1.33329     1.13392    -0.78349
H      1.54159     0.33620    -0.26297
O     -0.91729     1.91339     1.08066
H     -0.24240     2.61178     0.94537
O     -0.51394     1.40770     2.35715
H     -1.31844     0.92024     2.61079
O     -2.49657    -0.29212     2.97820
H     -2.65900    -0.71877     3.82503
O     -2.30776    -1.40124     2.10454
H     -1.32558    -1.43419     2.03884
