 16
-606.6355600816021
O     -0.54827     0.29156    -0.96090
H     -0.26248     1.02922    -1.52706
O     -0.46627     0.93991     0.32152
H      0.19530     0.36373     0.75286
O      1.20581    -0.93269     1.30908
H      0.82629    -1.76433     0.96346
O      1.06228    -1.09910     2.71940
H      1.98290    -1.08480     2.99237
O     -0.15158     2.70527    -2.14543
H     -0.94039     3.05046    -2.57685
O     -0.04578     3.55933    -0.99577
H     -0.26931     2.93185    -0.29154
O     -1.20168    -2.20025     0.04115
H     -0.99755    -1.39721    -0.46229
O      0.03993    -2.90000    -0.11176
H     -0.24503    -3.80902     0.01633
