 32
-1213.3051293986468
O     -0.38663    -1.97274     1.11399
H     -0.64677    -1.83312     0.17798
O     -1.67036    -1.82452     1.74856
H     -1.63094    -0.87929     1.97293
O      0.54839    -2.55534    -2.14449
H     -0.41311    -2.50168    -2.05073
O      0.90923    -1.43711    -1.32415
H      1.59265    -1.80647    -0.74538
O     -3.05152    -2.04733    -0.53902
H     -2.80881    -2.17598     0.39608
O     -1.85690    -1.39666    -0.98455
H     -2.11441    -0.45786    -0.95118
O     -2.63622     1.15019    -0.58608
H     -3.57884     1.33999    -0.54249
O     -2.14834     2.13822    -1.50164
H     -1.23234     2.19733    -1.17400
O      4.10188     0.96198    -0.54248
H      4.96725     1.28219    -0.27093
O      3.35247     2.18545    -0.58186
H      2.53026     1.86787    -1.00958
O      0.28078     1.67818    -0.38264
H      0.68473     1.12618     0.32251
O      1.04069     1.21722    -1.50465
H      0.90887     0.24697    -1.46554
O     -1.46743     0.82258     2.07810
H     -1.81135     1.30560     1.31096
O     -0.63278     1.79308     2.69963
H      0.22576     1.36590     2.58999
O      2.52035    -0.74957     0.79420
H      3.05299    -0.03912     0.38196
O      1.38564    -0.02688     1.27854
H      0.74112    -0.76914     1.35858
