 20
-758.299033686007
O     -0.94635    -0.08127     2.05315
H     -1.14660    -0.56329     2.86271
O     -1.87667    -0.64017     1.12334
H     -1.27194    -1.04331     0.48673
O     -0.05707     0.77744    -1.00059
H      0.85925     0.79957    -1.31359
O     -0.38374    -0.59584    -1.24661
H     -1.18206    -0.48006    -1.78226
O      1.58226    -0.45406     1.23133
H      0.66945    -0.19692     1.46320
O      2.33331     0.33003     2.16602
H      2.80011     0.92676     1.56536
O      3.74606     0.97359    -0.59311
H      4.58365     0.51618    -0.71667
O      2.82687     0.01302    -1.13231
H      2.44792    -0.35592    -0.30941
O     -3.10091     0.34659    -1.36697
H     -2.97258     0.23298    -0.41249
O     -4.26223    -0.45167    -1.60422
H     -4.91473     0.22420    -1.81297
