 32
-1213.3132112679536
O      2.68807    -0.06322     1.35358
H      2.55551    -0.66560     0.59824
O      2.37431     1.20405     0.78517
H      1.44792     1.33821     1.07536
O     -1.44575    -1.52588     0.23065
H     -0.76660    -1.57718     0.93124
O     -0.63887    -1.43798    -0.95053
H     -0.94451    -0.59636    -1.36710
O     -1.20073     0.94870    -2.01428
H     -0.28568     1.31610    -2.02643
O     -1.83468     1.84094    -1.08063
H     -2.66675     1.33832    -0.90700
O     -0.21108     1.63548     1.04849
H     -0.77536     1.77573     0.25268
O     -1.11725     1.00687     1.96040
H     -0.51532     0.40746     2.43257
O      1.32375     1.58259    -1.72847
H      1.96056     1.51234    -0.99129
O      1.97677     0.96259    -2.83553
H      2.11915     0.06110    -2.50802
O      1.94527    -1.80684    -0.58299
H      0.96962    -1.65977    -0.69433
O      2.46024    -1.55745    -1.88108
H      2.32713    -2.39754    -2.32890
O      0.48267    -1.93274     2.03496
H      0.66312    -2.69767     2.59028
O      0.71626    -0.83932     2.91648
H      1.55350    -0.50069     2.52159
O     -3.98542     0.41104     0.91584
H     -3.15352     0.70714     1.31167
O     -3.56095    -0.01968    -0.37232
H     -2.96085    -0.76343    -0.16125
