 28
-1061.6448836690074
O      0.85142    -1.19336    -0.40862
H     -0.01861    -1.07635     0.03715
O      0.64613    -0.58912    -1.68705
H      0.04314    -1.24204    -2.09450
O      1.62570     1.91110     1.00185
H      2.25547     1.48175     0.38599
O      1.26690     0.79503     1.81998
H      2.01764     0.70832     2.41681
O     -1.03132     1.46758    -1.23889
H     -0.22582     0.91685    -1.32499
O     -0.77518     2.40542    -0.19819
H     -1.99788    -1.88010    -1.72783
O     -1.13368     1.53862     2.95318
H     -0.32926     1.18658     2.54357
O     -2.09608     1.35217     1.91144
H     -1.82996     2.02151     1.25238
O     -1.64584    -0.89965     0.61523
H     -1.86210    -0.14987     1.22346
O     -2.53239    -0.63507    -0.48824
H     -2.17596     0.22413    -0.78438
O     -1.15384    -3.55463    -1.98309
H     -1.55380    -4.04816    -2.70233
O     -1.38893    -2.22072    -2.41457
H      0.13514     2.22751     0.10440
O      3.12169     0.15981    -0.33070
H      2.40271    -0.50795    -0.39227
O      4.01445    -0.44939     0.59158
H      4.77361    -0.61626     0.02540
