 36
-1364.9815938806018
O      1.13027     1.24877     2.73160
H      1.91700     0.69888     2.85909
O      0.09194     0.26141     2.74134
H     -0.45578     0.57004     1.98572
O      0.16653    -1.87397     0.62716
H      0.91389    -1.79692     1.25289
O      0.75500    -2.71764    -0.37568
H     -0.01627    -2.77072    -0.97446
O      1.73993     2.09626     0.30617
H      1.37523     1.82263     1.18912
O      3.10521     2.33962     0.63993
H      3.10713     3.30110     0.68210
O     -1.25944     0.99092     0.57611
H     -1.02351     1.16150    -0.35808
O     -2.19667     2.03304     0.83306
H     -2.99161     1.57955     0.51321
O     -3.89711     0.44467    -0.57714
H     -3.36954    -0.37838    -0.57286
O     -3.84321     0.78655    -1.95816
H     -4.64884     1.30123    -2.06450
O      1.73500     0.24668    -1.69070
H      1.72512     1.02272    -1.09800
O      2.48197    -0.68082    -0.89345
H      1.86436    -1.43386    -0.81906
O     -0.68922     0.01786    -2.70495
H      0.24044     0.04322    -2.38625
O     -1.19754     1.19552    -2.07829
H     -2.16238     1.08324    -2.19755
O      2.43409    -1.78444     2.02574
H      3.08822    -2.48173     2.15566
O      3.23065    -0.60717     1.90813
H      3.17938    -0.44199     0.95195
O     -1.57365    -2.23024    -1.56398
H     -1.33080    -1.43045    -2.07218
O     -2.22804    -1.64999    -0.42866
H     -1.47465    -1.56638     0.18950
