 40
-1516.6379152259929
O      2.52506     2.78684    -1.75095
H      2.49784     3.58792    -1.21625
O      3.11897     1.88141    -0.81537
H      3.05421     1.03611    -1.30168
O      3.63114    -1.70628     0.92483
H      2.73625    -1.63560     1.32263
O      4.02564    -0.33193     0.97872
H      4.72580    -0.35092     1.63810
O      1.61953     1.54772     1.33826
H      2.38098     1.62641     0.72519
O      0.78313     2.61005     0.91784
H      0.43340     2.27185     0.07800
O     -2.28089    -1.12807     1.54108
H     -2.14071    -0.16246     1.67096
O     -1.82086    -1.67096     2.78070
H     -0.90385    -1.85686     2.54557
O      0.45641     1.11766    -2.82823
H      0.97919     1.92805    -2.80177
O     -0.29991     1.31058    -1.62661
H     -0.89044     0.51649    -1.61835
O      2.52941    -0.42734    -2.09692
H      1.69690    -0.13382    -2.51281
O      2.11376    -1.64258    -1.47329
H      2.89503    -1.85072    -0.93681
O     -4.73800    -1.73248     0.73970
H     -3.85912    -1.60755     1.15561
O     -4.32454    -2.45777    -0.42844
H     -5.15711    -2.84429    -0.71493
O     -1.77271    -0.88981    -1.45245
H     -1.51357    -1.21831    -0.56727
O     -3.01889    -0.25127    -1.16018
H     -3.59486    -1.03195    -1.01738
O     -1.86173     1.49786     1.70591
H     -1.04078     1.98767     1.87432
O     -2.39476     2.17695     0.56410
H     -2.71374     1.42849     0.03835
O      0.30571    -1.36199     0.49317
H      0.94179    -1.41124    -0.25230
O      1.14388    -1.10121     1.61913
H      1.22826    -0.12405     1.58998
