 28
-1061.6469130021026
O      0.21815    -3.00835    -0.81997
H      1.01096    -2.94940    -0.25332
O     -0.83379    -2.75236     0.12503
H     -1.41783    -2.22079    -0.43433
O      0.21351    -0.75787    -2.23567
H      0.39861    -1.66577    -1.93609
O     -1.08092    -0.60696    -1.62184
H     -1.11569     0.34654    -1.42516
O      0.04243    -0.55687     1.51853
H     -0.18427    -1.42967     1.14204
O     -1.22037     0.11113     1.40870
H      3.13005    -2.91050     0.98684
O     -1.81107     2.91500     2.19844
H     -1.16532     2.97792     1.47029
O     -2.99552     2.70636     1.41758
H     -3.46594     3.53793     1.54516
O     -1.46032     1.99687    -0.96593
H     -2.20715     1.98597    -0.34817
O     -0.45191     2.55938    -0.11265
H      0.35049     2.07298    -0.40741
O      2.97591    -1.88924    -0.58292
H      2.86554    -0.93602    -0.37177
O      2.38438    -2.44861     0.59051
H     -1.15334     0.78766     2.09533
O      2.11687     0.48411     0.19544
H      1.30961     0.18697     0.66518
O      1.61905     1.11556    -0.97554
H      1.23470     0.37013    -1.49152
