 20
-758.301303690268
O     -0.28540    -1.09567     2.22826
H     -1.19060    -1.20385     2.53890
O     -0.40752    -1.38683     0.83177
H     -0.45305    -0.48023     0.45867
O      1.60834    -0.84314    -1.43777
H      1.29306     0.00942    -1.09929
O      2.34274    -1.36903    -0.33216
H      1.63431    -1.75356     0.20415
O      1.09334     1.27978     2.36349
H      0.61293     0.43784     2.43429
O     -0.00127     2.20233     2.31121
H      0.40174     2.99265     2.68220
O     -1.51752     1.52861    -0.77327
H     -1.45343     0.96109    -1.55628
O     -0.33535     1.09861    -0.08687
H     -0.26747     1.71864     0.66855
O     -1.10447    -1.49870    -2.26364
H     -0.14387    -1.56250    -2.13939
O     -1.17903    -0.21205    -2.88241
H     -1.72323    -0.39748    -3.65431
