 40
-1516.6488529569012
O      2.71289    -0.21973    -0.46625
H      2.19360    -0.51356    -1.24139
O      2.10334     1.02888    -0.16100
H      1.96333     0.98685     0.81027
O     -0.52692    -1.12805     0.52674
H     -0.38862    -1.09395    -0.44965
O     -1.87423    -1.58809     0.63374
H     -2.30733    -0.91299     0.07477
O     -2.44249     0.61786    -0.70609
H     -1.54071     1.01645    -0.78072
O     -3.10401     1.58497     0.10526
H     -2.76433     1.35973     0.99092
O      1.23776     0.96091     2.38410
H      0.28426     1.09623     2.24029
O      1.18146    -0.13269     3.31589
H      1.75132    -0.79018     2.86626
O     -2.58429     3.08629    -2.15687
H     -2.98695     2.67296    -1.37004
O     -2.28039     4.40295    -1.69851
H     -1.36575     4.29916    -1.41061
O     -0.19848     1.88845    -1.11806
H      0.72963     1.60196    -0.95646
O     -0.32746     1.77114    -2.53850
H     -1.16981     2.27024    -2.63881
O     -0.23706    -0.86186    -2.10873
H     -0.30394     0.03080    -2.51037
O      1.13371    -1.18651    -2.38534
H      1.12153    -2.16410    -2.32244
O      1.53376    -2.68329     1.25080
H      0.74321    -2.11549     1.12171
O      2.54091    -1.76963     1.67495
H      2.71450    -1.25744     0.85576
O      2.56595    -3.36490    -1.09184
H      2.24418    -3.27357    -0.16690
O      1.35679    -3.75860    -1.74499
H      1.61051    -4.59685    -2.14176
O     -1.80296     0.66640     3.84061
H     -0.93480     0.47970     4.22988
O     -1.47263     0.75205     2.46002
H     -1.46996    -0.17629     2.16064
