 32
-1213.316080469551
O      0.93141    -0.36632     2.43912
H      1.77314    -0.05774     2.02409
O      0.37158     0.84129     2.94054
H      0.52503     0.74726     3.88603
O      2.63504    -1.67123    -0.89464
H      1.73248    -1.93605    -0.63356
O      2.36799    -0.78932    -1.99166
H      2.60340     0.06345    -1.57366
O     -3.62436    -0.55961    -0.04351
H     -3.41784    -0.36519     0.88261
O     -2.52384     0.06849    -0.68978
H     -1.77193    -0.35755    -0.21874
O      0.18812     1.62248     0.00164
H     -0.30140     2.21964     0.59310
O     -0.10536     2.16526    -1.28707
H     -0.44436     1.37607    -1.73706
O      2.79450     1.04979    -0.12604
H      1.86147     1.30256     0.03315
O      3.08491     0.15121     0.95319
H      3.19106    -0.67243     0.43656
O     -0.19835    -0.37424    -2.83320
H      0.70217    -0.64088    -2.56137
O     -0.96247    -1.55035    -2.53656
H     -1.80328    -1.14300    -2.28228
O      0.11570    -2.26860    -0.19330
H     -0.34584    -2.24757    -1.05700
O     -0.71163    -1.36018     0.53694
H     -0.11558    -1.03723     1.24499
O     -2.19287     0.89814     2.05973
H     -1.26457     0.87467     2.34777
O     -2.24249     2.12995     1.33307
H     -2.56846     1.81232     0.47805
