 20
-758.3026268855639
O     -1.02615    -2.07265    -0.22175
H     -1.11067    -1.31361    -0.84168
O      0.27827    -2.55029    -0.55196
H      0.07824    -3.30298    -1.11758
O      1.75682    -0.51204    -1.43817
H      1.33981    -1.28452    -1.01875
O      2.77159    -0.19601    -0.48259
H      2.46522     0.66749    -0.18003
O      0.83349     2.64821     1.29407
H      0.29866     3.33192     0.88108
O      0.62785     1.57432     0.37072
H      0.31041     0.86354     0.96948
O     -0.45665    -0.37311     1.89226
H     -0.64927    -1.18447     1.38716
O     -1.76247     0.02386     2.31376
H     -1.67884    -0.07650     3.26613
O     -0.99252     0.05561    -1.81639
H     -0.06975     0.35783    -1.86801
O     -1.71629     1.22205    -1.43164
H     -1.26747     1.47601    -0.61111
