 40
-1516.6395748243808
O      2.57729     2.39032     0.21527
H      2.97812     3.14450     0.65437
O      2.64884     1.40318     1.23539
H      1.72893     1.42579     1.62971
O      0.99842    -1.54465    -1.22315
H      1.93523    -1.40271    -0.98146
O      0.53785    -0.21533    -1.40058
H     -0.16309    -0.15313    -0.72925
O     -1.69550     0.69938     0.52040
H     -2.22909     1.33422    -0.01072
O     -2.65897    -0.28084     0.92167
H     -3.03461    -0.54263     0.05671
O      0.24076     1.39447     2.24168
H     -0.55889     1.13911     1.73422
O      0.26284     0.44556     3.31110
H      0.76871    -0.28483     2.89381
O     -3.31939     2.02072    -1.10294
H     -3.96165     2.73813    -1.11035
O     -2.79799     2.03597    -2.42676
H     -1.86189     2.27888    -2.26237
O      0.04878     2.72131    -0.65614
H      0.98499     2.53037    -0.46494
O     -0.09935     2.32388    -2.02161
H      0.17913     1.38756    -1.98236
O      3.93356    -0.89564     0.62494
H      3.48524    -0.05057     0.81726
O      3.62193    -1.03904    -0.75137
H      4.45081    -1.36179    -1.11444
O     -1.14975    -2.90985    -0.37780
H     -0.33402    -2.51912    -0.75158
O     -1.01816    -2.51609     0.99506
H     -1.63372    -1.75992     1.07065
O      1.30216    -1.39745     1.71486
H      0.53408    -1.95252     1.45517
O      2.22119    -2.36579     2.23252
H      2.97939    -2.11402     1.68903
O     -3.12321    -1.48500    -1.47704
H     -2.52358    -2.20450    -1.19115
O     -2.28469    -0.85369    -2.45346
H     -2.83028    -0.10305    -2.72059
