 36
-1364.9765310030393
O      0.87924     1.92764     2.75092
H      1.03355     2.56307     2.03743
O      1.70284     0.83947     2.31368
H      1.09884     0.07473     2.36533
O      0.19565    -1.37151     2.14042
H      0.72493    -2.02869     1.65277
O     -0.51623    -0.84872     1.01551
H     -1.06100    -0.12885     1.42301
O      1.59512     3.00812    -1.47395
H      0.72565     2.73010    -1.78964
O      1.45500     2.80957    -0.06009
H      1.85998     1.91994     0.01572
O      1.45620    -2.85743     0.28138
H      0.89684    -2.77855    -0.52403
O      2.64294    -2.17055    -0.09220
H      3.26880    -2.87912    -0.26511
O     -1.62026     1.33540     2.01824
H     -0.85500     1.63795     2.55571
O     -1.65828     2.32232     0.98995
H     -1.15177     1.89333     0.28259
O     -3.18895     0.06399    -0.41514
H     -3.74600     0.44293     0.27867
O     -3.92287    -1.07904    -0.86093
H     -3.23088    -1.75585    -0.80679
O      2.42106     0.34146    -2.01350
H      2.50896     1.28841    -2.19289
O      2.31803     0.41633    -0.58893
H      2.47224    -0.50959    -0.32248
O     -1.28759     0.06899    -2.27711
H     -2.10495     0.11600    -1.74167
O     -0.44220     0.94777    -1.53188
H      0.36512     0.42529    -1.38182
O     -0.36557    -2.36475    -1.60468
H     -0.68700    -1.53162    -2.01473
O     -1.40033    -2.66579    -0.66477
H     -1.15421    -2.03780     0.04325
