 20
-758.3125301604265
O     -0.07102    -2.74184     0.94660
H      0.81465    -2.65237     0.56888
O     -0.76427    -1.67281     0.30014
H     -0.75510    -0.98722     0.99148
O      1.00062     0.45096    -1.46033
H      0.76908     1.03886    -0.71025
O     -0.29589    -0.05105    -1.78369
H     -0.42605    -0.72229    -1.08564
O      0.18033     0.55444     1.60184
H      1.07265     0.20579     1.40233
O      0.12994     1.66634     0.70901
H     -0.83570     1.78044     0.59017
O      2.52415    -0.56845     0.99208
H      3.37796    -0.16543     0.80507
O      2.33477    -1.44717    -0.11851
H      1.86869    -0.84280    -0.73865
O     -2.43134     2.02548     0.12922
H     -2.86170     2.86293    -0.06972
O     -2.82851     1.21002    -0.96995
H     -1.97079     1.00073    -1.36820
