 28
-1061.6430737659823
O      1.66919    -2.04451    -1.81725
H      2.32041    -1.71354    -1.16202
O      0.87203    -2.92696    -1.02570
H      0.46503    -2.31624    -0.38583
O     -0.30646    -1.15008     0.71985
H     -1.14862    -1.07806     1.21415
O      0.66929    -0.95804     1.75982
H      0.53314     0.00110     1.95488
O      1.34336     2.37601     1.62211
H      1.88745     1.72058     1.14406
O      0.17019     1.61790     1.91252
H      0.72389     1.36516    -2.75246
O     -2.74279    -0.85849     1.79851
H     -3.30735    -1.59427     2.05533
O     -3.53219    -0.25191     0.76196
H     -2.84557     0.29704     0.34446
O     -1.72005     1.29889    -0.44543
H     -1.29892     0.86023    -1.20764
O     -2.15467     2.54031    -0.98265
H     -3.09682     2.49025    -0.80853
O     -0.16823    -0.19518    -2.19718
H      0.47459    -0.95426    -2.19122
O      0.71290     0.89401    -1.91451
H     -0.39125     1.78126     1.13919
O      2.62252     0.61843    -0.03494
H      1.92988     0.58737    -0.72028
O      2.87033    -0.76408     0.22161
H      2.18739    -0.95478     0.89643
