 24
-909.9734374509646
O     -1.70902    -1.58867     0.13930
H     -2.33592    -1.12600    -0.43001
O     -1.99250    -0.92342     1.37585
H     -1.20368    -1.15434     1.89362
O      0.60459    -1.23224    -1.15891
H     -0.17337    -1.45162    -0.61203
O      0.04683    -0.23761    -2.03120
H      0.45232     0.54876    -1.62495
O      3.19501    -0.42800    -0.79740
H      2.26309    -0.71343    -0.86395
O      3.14628     0.59887     0.19725
H      3.02755     0.09167     1.01266
O     -3.47723     1.33337    -1.67304
H     -3.45008     2.28804    -1.55961
O     -2.28894     0.95155    -0.97880
H     -1.70907     0.65664    -1.70117
O      1.22577    -0.67832     1.88819
H      0.73092     0.10575     1.56730
O      0.27102    -1.22478     2.79916
H      0.65964    -2.08920     2.96430
O      0.82004     1.73212    -0.39579
H      1.73073     1.47095    -0.12740
O      0.06667     1.42929     0.78590
H     -0.81592     1.30969     0.39620
