 36
-1364.9698770277844
O     -1.95978     1.65181     1.80428
H     -1.19163     1.07491     1.61511
O     -2.84113     1.32085     0.73228
H     -3.22640     0.48070     1.04290
O     -3.60441    -1.19836     1.17926
H     -4.38298    -1.74574     1.04208
O     -2.60215    -1.90529     0.45931
H     -2.50579    -1.35713    -0.35101
O      1.39660    -3.45368     0.24959
H      0.97400    -2.66813     0.65083
O      0.53119    -4.49720     0.70414
H      1.08608    -4.92468     1.36295
O      0.60487    -1.49172    -2.35985
H      1.34637    -0.87820    -2.21575
O      1.23281    -2.73755    -2.67081
H      1.22850    -3.16746    -1.80459
O      3.25803     2.16952     1.37183
H      2.38603     2.58601     1.27376
O      3.68209     2.21868     0.00713
H      4.62776     2.37011     0.09253
O      0.79191     2.91506     0.54439
H      0.92917     2.97440    -0.41293
O     -0.17871     3.93236     0.79114
H     -0.87218     3.40690     1.21477
O     -1.37808     0.85384    -1.43475
H     -1.89932     1.11286    -0.63885
O     -1.76253    -0.51082    -1.61271
H     -0.91784    -0.91547    -1.89393
O      1.81777     0.48585    -0.69165
H      2.61982     1.01961    -0.49843
O      1.23280     1.25993    -1.73985
H      0.27502     1.10121    -1.59750
O      0.07091     0.01057     1.28377
H      0.71460     0.14775     0.55122
O     -0.04160    -1.41057     1.33396
H     -0.97623    -1.56844     1.10237
