 32
-1213.3064416426512
O      2.79717     0.58544     1.13410
H      3.65732     0.71600     1.54504
O      2.55851     1.86469     0.54741
H      1.62630     1.99967     0.82081
O     -0.88462    -1.22598    -0.19334
H      0.00394    -1.23237    -0.59530
O     -1.72233    -1.72767    -1.22724
H     -1.79115    -0.91344    -1.77106
O     -1.49268     0.76899    -2.12379
H     -0.52370     0.89321    -2.03452
O     -1.97808     1.60459    -1.06445
H     -2.70883     1.04734    -0.71584
O     -0.07551     1.98561     0.80542
H     -0.75895     1.88378     0.10230
O     -0.61095     1.21155     1.88503
H     -0.02849     0.42542     1.89514
O      1.12374     0.98348    -1.78854
H      1.78861     1.54874    -1.36370
O      1.83719     0.37017    -2.87203
H      2.10329    -0.45889    -2.45066
O      2.05993    -1.37368    -0.54518
H      2.31567    -0.69309     0.11079
O      3.32954    -1.91764    -0.89164
H      3.15315    -2.85419    -0.77374
O     -0.42871    -1.99388     2.30693
H     -0.82182    -1.81265     1.43246
O      0.70112    -1.11558     2.20079
H      1.15144    -1.27685     3.03441
O     -3.55859     0.14319     1.50661
H     -2.68999     0.56736     1.57792
O     -3.69801    -0.05951     0.10012
H     -3.29369    -0.92964    -0.04041
