 20
-758.300800592351
O     -0.62317    -0.49558     1.21045
H     -1.58020    -0.68688     1.27401
O     -0.34429    -1.11811    -0.05224
H      0.56047    -1.45757     0.09015
O      2.35227    -1.70431    -1.22578
H      2.34508    -0.72602    -1.23079
O      2.21130    -1.92367     0.18300
H      2.54500    -2.82242     0.27519
O     -0.24838     1.83581    -0.04301
H     -0.45713     1.07273     0.53943
O     -1.41695     1.90876    -0.86050
H     -1.68607     2.81806    -0.70506
O      2.83669     1.21835     0.38244
H      2.84340     0.32992     0.76173
O      2.20911     0.96690    -0.88058
H      1.31395     1.31834    -0.72310
O     -3.64744     0.45592     0.28543
H     -2.82290     0.67282    -0.17291
O     -3.28017    -0.72500     1.00381
H     -3.71630    -1.41706     0.49528
