 32
-1213.3188643025248
O      1.75410     1.21757     0.68281
H      1.90802     1.10477    -0.27853
O      1.10958     2.49133     0.74084
H      0.63056     2.40614     1.58989
O     -0.74161    -1.88147    -1.29075
H     -0.07022    -1.32342    -1.73345
O      0.02959    -2.78184    -0.50151
H      0.16351    -2.23427     0.29791
O     -1.84236     2.32177    -0.48340
H     -2.15677     1.39816    -0.51241
O     -0.64234     2.21505    -1.25102
H      0.02088     2.52719    -0.60303
O     -1.88228     1.94012     2.37091
H     -1.79586     2.39855     1.52238
O     -0.51511     1.84995     2.78585
H     -0.41737     0.88237     2.89040
O      0.65284     0.13811    -2.36734
H      0.16740     0.93257    -2.06856
O      1.95628     0.36054    -1.83222
H      2.33172    -0.53537    -1.94636
O      2.56247    -2.17361    -2.35101
H      3.07141    -2.64973    -3.01431
O      2.69744    -2.99840    -1.19607
H      1.76106    -3.20049    -1.03102
O     -0.39309    -0.82117     2.47580
H     -1.24162    -0.98756     2.02722
O      0.51758    -1.05255     1.40632
H      0.87373    -0.16307     1.19010
O     -2.50967    -0.23009    -0.17952
H     -1.90596    -0.94390    -0.48859
O     -2.75441    -0.55928     1.18437
H     -2.84123     0.32566     1.56556
