 36
-1364.9856667320223
O     -1.88788     2.05520    -0.16534
H     -2.42676     1.26515    -0.40409
O     -1.27575     1.62335     1.05165
H     -0.75921     2.42269     1.29564
O     -0.47077    -0.91587     1.46247
H     -0.71203     0.02368     1.31420
O     -1.72328    -1.58513     1.30399
H     -1.43647    -2.43414     0.91424
O      1.42401    -2.77273     1.25343
H      0.89503    -1.97924     1.45205
O      2.57233    -2.21053     0.61919
H      2.22256    -2.03666    -0.27212
O      1.15055    -1.46468    -1.53124
H      0.46716    -2.17063    -1.52040
O      0.36252    -0.30819    -1.26158
H      0.88048     0.14557    -0.55500
O      0.52054     2.40295    -1.17585
H     -0.44314     2.30592    -0.98799
O      0.60833     2.30178    -2.58942
H      0.84882     1.37242    -2.68167
O      1.44322     3.78398     0.93771
H      1.24707     3.29696     0.11337
O      0.14007     3.85141     1.51330
H     -0.13259     4.75880     1.33694
O     -2.96754    -0.33383    -0.66722
H     -2.69201    -0.81043     0.14399
O     -2.15203    -0.95979    -1.65768
H     -1.28531    -0.53542    -1.51673
O      1.67670     1.06607     1.91878
H      2.06624     1.94940     1.89322
O      2.03859     0.57177     0.62985
H      2.62081    -0.17542     0.84574
O     -0.80592    -3.75931    -0.00146
H      0.12208    -3.70296     0.28913
O     -0.70860    -3.37098    -1.37206
H     -1.51014    -2.83565    -1.48277
