 32
-1213.3085604235428
O      2.28701    -1.55476     3.15479
H      1.48489    -1.73425     2.61709
O      3.11840    -0.88961     2.19556
H      3.78832    -1.55525     2.01518
O     -1.67876    -0.62075    -2.50529
H     -1.75567     0.16609    -1.92766
O     -0.31584    -0.50633    -2.94289
H      0.07350    -1.22857    -2.40390
O      1.60577     0.13440     0.23327
H      2.17598    -0.07908     0.99652
O      1.37192     1.53579     0.40050
H      1.13141     1.76132    -0.51762
O     -0.99380     0.59520     2.61797
H     -1.16227     0.94074     3.49913
O     -0.87510     1.78100     1.84212
H      0.05422     1.74149     1.53716
O      0.26237     2.83564    -3.02711
H      1.04163     3.20428    -3.45169
O      0.85197     1.81884    -2.22041
H      0.42578     1.00301    -2.57283
O     -1.21632    -2.47634    -0.64967
H     -1.68162    -1.93749    -1.31923
O      0.14180    -2.20355    -1.02665
H      0.40212    -1.57650    -0.32762
O      0.03412    -1.68077     1.75759
H     -0.45516    -0.87102     2.00236
O     -0.91099    -2.70021     2.07285
H     -1.15530    -2.93490     1.16635
O     -1.77543     1.34837    -0.69814
H     -1.61997     1.46979     0.25953
O     -2.19331     2.65303    -1.09595
H     -1.42510     2.93136    -1.60819
