 24
-909.9819065476453
O     -2.58533     1.30298    -0.35147
H     -2.42700     0.34534    -0.36772
O     -2.25603     1.62419     0.99538
H     -3.11844     1.85626     1.35305
O      2.25651    -1.25845    -0.55907
H      1.28841    -1.45492    -0.58145
O      2.47733    -0.66695    -1.83322
H      2.87411    -1.38707    -2.33335
O      0.21850     0.66616    -2.28102
H      1.13233     0.35574    -2.13598
O      0.10643     1.70084    -1.30266
H     -0.85116     1.84623    -1.29157
O     -1.33275    -1.19857    -1.16603
H     -0.77744    -0.57595    -1.67126
O     -0.33003    -1.79891    -0.33124
H     -0.65660    -1.58721     0.57592
O     -1.26657    -0.91430     1.96073
H     -1.45469     0.03647     1.97378
O      0.01760    -1.00294     2.58253
H      0.49474    -0.25765     2.15122
O      0.81977     1.06405     1.21005
H      0.59488     1.32811     0.29379
O      2.23058     0.89304     1.17351
H      2.31566     0.05759     0.68438
