 40
-1516.6414892056657
O      1.11657     2.84717    -1.38481
H      0.28978     3.10760    -0.94068
O      1.15651     1.49465    -0.93025
H      0.86857     1.00785    -1.72690
O     -0.92332    -0.39033     1.12359
H     -0.52604    -0.99119     0.45265
O     -1.87010    -1.26876     1.73932
H     -1.23342    -1.75235     2.31549
O      1.92595    -0.05642     1.90346
H      1.63122     0.82410     2.22957
O      2.77122     0.28704     0.80112
H      2.18192     0.80028     0.20372
O      0.26193    -2.38116     2.81844
H      0.97842    -1.78682     2.53762
O      0.48019    -3.54925     2.03593
H      0.08679    -3.31404     1.18307
O     -2.03502     3.33060     0.94330
H     -1.77873     2.95155     1.79871
O     -1.07114     2.67743     0.11973
H     -1.56792     1.90150    -0.21634
O      2.85492    -1.96901    -0.66069
H      2.95735    -1.21370    -0.03970
O      2.26019    -1.29942    -1.77308
H      2.95019    -1.36356    -2.44101
O     -2.39057     0.67384    -1.08781
H     -2.04022     0.54459    -1.98712
O     -2.90083    -0.63635    -0.79981
H     -2.80414    -0.65496     0.16419
O     -0.09987    -2.04381    -0.79951
H      0.75094    -1.91166    -1.27939
O     -1.05321    -2.28908    -1.84241
H     -1.82592    -1.84533    -1.44465
O     -0.62832     1.75856     2.69637
H     -0.69054     0.94485     2.14282
O      0.68425     2.24959     2.38894
H      0.53066     2.62409     1.50602
O     -1.05543     0.05883    -3.37494
H     -0.93387    -0.89813    -3.27272
O      0.28955     0.51258    -3.26341
H      0.36027     1.11786    -4.00906
