 36
-1364.9734830528466
O     -0.60252     1.78867     2.10261
H     -1.51168     1.79885     1.74691
O     -0.69188     0.67232     2.98314
H     -0.44537     1.07951     3.81852
O     -2.76249     1.10232     0.69627
H     -2.45474     0.18219     0.66198
O     -2.50296     1.56353    -0.62615
H     -2.16792     2.46775    -0.44268
O      1.82389    -0.74831     2.50111
H      0.87863    -0.55646     2.46693
O      1.87884    -1.98633     1.80028
H      2.53403    -1.77967     1.10780
O      0.46491     1.72681    -1.09589
H      0.11011     1.03502    -1.69300
O      0.90869     0.88661    -0.02400
H      0.42561     1.25169     0.74737
O     -0.47149    -2.68999     0.70925
H      0.39467    -2.49177     1.12981
O     -1.09304    -1.39481     0.66860
H     -0.99830    -1.13777    -0.26405
O     -1.60939     3.97237    -0.02538
H     -1.89774     4.66255     0.57808
O     -0.18684     4.03263     0.10152
H      0.04819     3.23354    -0.40697
O     -1.87817    -0.57602    -2.10900
H     -2.09560     0.29027    -1.71874
O     -0.46479    -0.43659    -2.31503
H     -0.20569    -1.38871    -2.37928
O      1.41928    -3.35533    -1.88604
H      1.82527    -2.48323    -1.74013
O      0.03171    -2.99378    -1.90358
H     -0.23174    -3.15470    -0.97185
O      2.39946    -0.91556    -1.23012
H      1.82888    -0.30873    -0.70122
O      3.40189    -1.25301    -0.27545
H      4.11170    -0.63817    -0.48474
