 32
-1213.3094752238676
O      2.62643     0.25982     1.85127
H      2.18260     1.01696     2.26238
O      1.73779     0.04869     0.75502
H      1.03050    -0.48935     1.16886
O      0.16244    -2.69953    -0.37298
H      0.90192    -2.51876    -0.97282
O      0.74918    -3.61929     0.55306
H      0.40891    -3.26634     1.38496
O     -3.19214     0.71094    -2.50202
H     -3.69314     0.89157    -3.30199
O     -2.77549     2.03337    -2.13496
H     -2.48740     1.86841    -1.21184
O     -0.32262     1.27994     3.33582
H     -0.83451     1.95432     3.79608
O      0.62865     2.04889     2.60665
H      0.20198     2.07878     1.72050
O     -0.76152    -0.45506    -2.17892
H     -1.57442     0.02786    -2.42312
O      0.15652     0.62609    -1.98436
H      1.01143     0.16377    -2.10219
O      2.68089    -1.52620    -1.14179
H      2.46506    -0.91879    -0.39361
O      2.47404    -0.65719    -2.26006
H      3.36872    -0.37817    -2.47551
O     -1.86198     1.54030     0.32373
H     -1.75776     0.58250     0.52800
O     -0.50259     1.96013     0.19513
H     -0.21042     1.46918    -0.61089
O     -0.36134    -1.01748     1.98468
H     -0.53460    -0.19714     2.49373
O     -1.36812    -0.99266     0.96061
H     -0.90520    -1.51663     0.26928
