 36
-1364.9785859871463
O     -1.14765     2.87388    -0.85950
H     -1.72047     2.12919    -0.58098
O     -0.67500     3.36740     0.38935
H     -1.17599     4.18176     0.49882
O     -1.84939    -1.25264    -3.35195
H     -2.00355    -1.39359    -4.29297
O     -1.97511     0.16129    -3.22763
H     -1.03548     0.41790    -3.10389
O     -0.97140    -1.70886     1.59866
H     -0.63389    -1.50078     2.48437
O     -0.08540    -2.76087     1.19720
H     -0.16809    -2.72378     0.22661
O      0.11777    -2.55968    -1.49193
H     -0.55482    -2.05242    -1.97093
O      1.28380    -1.76544    -1.71352
H      1.58099    -1.56735    -0.79966
O      0.75148    -0.84579     3.84415
H      0.71243     0.10210     3.57629
O      2.00003    -1.23902     3.27042
H      2.61972    -1.11053     3.99622
O      0.82556     1.52212     2.65990
H      1.36040     1.26866     1.87495
O     -0.49976     1.33900     2.15684
H     -0.56668     2.06574     1.50976
O      0.63538     0.56996    -2.83530
H      0.96271    -0.28687    -2.48567
O      1.05470     1.46388    -1.80676
H      0.25688     2.00115    -1.65101
O      2.19442    -0.80095     0.58937
H      2.06793    -0.96681     1.54470
O      2.11138     0.62557     0.51557
H      1.70908     0.79052    -0.36485
O     -1.17514    -0.00510    -0.45266
H     -1.12909    -0.53995     0.37471
O     -2.48019     0.57541    -0.44750
H     -2.75083     0.32292    -1.34300
