 28
-1061.6471985074143
O      0.98188     0.39777    -3.12546
H      0.92390     0.99907    -3.87523
O      1.92428     1.03588    -2.26633
H      1.32555     1.47029    -1.61583
O      0.37507    -1.90405     2.72979
H     -0.35102    -1.98516     2.08364
O      1.05119    -0.75794     2.20923
H      1.33389    -1.05230     1.31964
O     -0.21134     1.56620     2.27124
H      0.24249     0.69696     2.38386
O     -1.57834     1.18981     2.39283
H      0.15833     2.04667     0.61029
O     -0.91149    -0.79142    -1.66597
H     -0.20762    -0.33380    -2.16495
O     -1.96905     0.17644    -1.67892
H     -2.39593    -0.08160    -0.83875
O     -2.29263    -0.77620     0.75014
H     -1.89200    -0.15117     1.38181
O     -1.34624    -1.84042     0.68881
H     -0.95309    -1.65907    -0.18724
O     -0.86779     2.56378    -0.89120
H     -1.29674     1.74081    -1.18889
O      0.35503     2.05435    -0.34741
H     -1.80696     1.53006     3.26234
O      2.87831    -0.95093    -0.50945
H      2.61106    -0.36352    -1.23349
O      1.64655    -1.62788    -0.25898
H      1.88692    -2.55364    -0.38862
