 24
-909.9788498878685
O     -2.39166     0.21112     0.95132
H     -2.49099     0.06018    -0.02616
O     -2.06521    -1.09683     1.42466
H     -2.73011    -1.22652     2.10753
O      0.38702    -1.03215    -1.60283
H      0.60455    -1.13273    -0.65376
O     -0.23922    -2.28896    -1.86493
H     -0.04364    -2.38801    -2.80006
O      2.63301     0.35318    -0.09348
H      2.49896    -0.23714     0.66810
O      3.66949     1.21867     0.37250
H      4.38643     0.96543    -0.21500
O     -1.94581     1.39506    -1.75881
H     -1.12950     1.55475    -1.24890
O     -2.11501    -0.01922    -1.63886
H     -1.22604    -0.38131    -1.82643
O      1.17939    -0.46529     2.16868
H      0.80059     0.42015     1.99927
O      0.60791    -1.19485     1.08797
H     -0.34246    -1.20010     1.31777
O      0.25690     1.72709    -0.22771
H      1.11448     1.26031    -0.21586
O     -0.12186     1.67561     1.15594
H     -0.99959     1.25892     1.08590
