 32
-1213.314714240825
O      3.22704     0.49199    -0.43048
H      3.00217    -0.10866     0.31214
O      3.28073     1.74092     0.23898
H      4.16422     2.04315     0.01741
O     -0.93004    -2.29889    -0.84183
H     -1.15862    -2.22792     0.10282
O      0.49800    -2.26177    -0.76253
H      0.71136    -1.53792    -1.38098
O     -2.71663    -0.62907    -1.91786
H     -2.00252    -1.25842    -1.69242
O     -2.06515     0.22040    -2.86261
H     -2.74033     0.89430    -2.99991
O      0.08616     1.26218     0.93581
H      0.06103     0.99898    -0.01491
O      0.74223     2.52344     0.84170
H      1.65213     2.25030     0.64972
O      1.17608    -0.02690    -2.11148
H      1.97014     0.27220    -1.63101
O      0.22916     0.94752    -1.65875
H     -0.57180     0.71094    -2.17456
O      1.56802    -0.35423     2.45303
H      1.01480     0.28399     1.94991
O      2.17297    -1.12740     1.41413
H      1.43399    -1.63356     1.03571
O     -1.22679    -1.40723     1.62448
H     -1.75996    -0.59189     1.59921
O     -1.07192    -1.69800     3.00991
H     -0.16763    -1.38380     3.15682
O     -2.80290     0.72474     0.42751
H     -2.97119     0.17570    -0.35495
O     -2.42374     1.94742    -0.23851
H     -1.69328     2.23561     0.32201
