 40
-1516.6391853552996
O      2.48386     0.97943    -2.42412
H      1.77210     1.03755    -3.09780
O      2.81229    -0.41557    -2.43235
H      1.95822    -0.83508    -2.25174
O     -1.20881     0.84018     1.31299
H     -2.04632     0.36843     1.52941
O     -0.29104     0.08903     2.12383
H      0.07951     0.79961     2.67968
O      2.10674     1.64251     2.50092
H      1.86639     2.12155     1.68361
O      1.04896     2.06666     3.35781
H      1.51857     2.16446     4.18983
O      2.07590    -0.72253     0.80982
H      2.41557    -0.05288     1.42875
O      3.23521    -1.44044     0.39293
H      3.27786    -1.17567    -0.53926
O     -4.31931    -0.98083     1.15509
H     -4.03024    -0.60725     0.31039
O     -3.13365    -0.84853     1.93316
H     -2.70434    -1.71675     1.80425
O      1.58616     2.38458     0.03165
H      2.01619     1.83830    -0.64801
O      0.23669     2.42621    -0.42673
H     -0.26029     1.87024     0.20525
O      0.08249     0.69557    -3.53181
H     -0.17063     0.17808    -2.74882
O     -0.56934     1.93642    -3.33416
H     -0.21191     2.23705    -2.48168
O      0.23190    -1.07856    -1.03846
H      0.78454    -0.80574    -0.26849
O      0.63243    -2.42671    -1.24079
H      0.57664    -2.76918    -0.33384
O     -2.67394    -0.44731    -1.27148
H     -1.84526    -0.77003    -0.87904
O     -2.40480     0.95669    -1.38184
H     -2.40520     1.10261    -2.33909
O     -1.56177    -3.01571     1.64300
H     -1.47972    -3.69413     2.31932
O     -0.22411    -2.54433     1.53939
H     -0.30919    -1.60161     1.79123
