 24
-909.9801611028926
O     -2.49000    -1.34821     0.67179
H     -3.38753    -1.10078     0.43377
O     -1.84895    -0.07828     0.64351
H     -0.98453    -0.30427     1.05236
O     -0.73003    -2.15094    -1.18344
H     -1.38904    -2.10602    -0.46524
O      0.28291    -2.98560    -0.61735
H      0.75847    -2.35886    -0.04110
O      2.19433     0.88987    -0.77198
H      2.73197     1.03456    -1.55521
O      1.14716     1.84215    -0.93250
H      0.51555     1.34368    -1.51932
O     -1.61820     0.84303    -1.88663
H     -1.66538     0.60489    -0.94489
O     -0.38789     0.24342    -2.28426
H     -0.46941    -0.67952    -1.94891
O      1.56297    -1.12004     0.87636
H      1.77333    -0.39415     0.25985
O      0.52187    -0.55663     1.68131
H      0.92249     0.26008     2.04320
O      1.19212     1.93976     2.34151
H      0.97670     2.41871     3.14544
O      0.05720     2.23267     1.52981
H      0.46933     2.21269     0.64927
