 28
-1061.6411167555095
O     -2.83668    -0.63169    -1.46254
H     -3.21849     0.25190    -1.32900
O     -3.67715    -1.43552    -0.63675
H     -4.03068    -2.04849    -1.28759
O     -1.60498     1.19770     1.45037
H     -1.21932     0.32325     1.22312
O     -0.55998     2.05558     0.97469
H     -0.79015     2.11672     0.03459
O      3.01150    -1.46537     1.69383
H      2.59973    -0.57883     1.72316
O      2.02026    -2.16124     0.92527
H      1.39498    -0.74581    -1.33986
O     -0.30546    -0.96994     0.65727
H      0.56242    -1.40416     0.85326
O     -0.21464    -0.86966    -0.77437
H     -1.16371    -0.80876    -1.00753
O     -2.13262     2.54277    -1.11806
H     -2.32032     3.48126    -1.02223
O     -3.26421     1.96463    -0.45064
H     -2.84864     1.71525     0.40525
O      2.76526    -1.98053    -1.65162
H      3.66252    -1.86338    -1.97666
O      2.34533    -0.62209    -1.53588
H      2.45997    -2.22592     0.06046
O      2.64782     1.55617     0.45065
H      2.76675     0.80667    -0.14724
O      1.86961     0.94805     1.48298
H      0.98747     1.34835     1.34081
