 40
-1516.640103169067
O      1.14187    -1.81240    -2.54065
H      0.26680    -1.41928    -2.76833
O      1.93616    -0.65184    -2.28343
H      1.94377    -0.63218    -1.29609
O     -1.57428    -0.40509     3.43929
H     -1.78065    -0.91230     2.63704
O     -1.15650     0.83052     2.84537
H     -1.80233     1.46703     3.17962
O      1.57841     2.15409     1.69945
H      1.64579     1.70419     0.83690
O      1.47427     1.05373     2.60858
H      0.50202     0.91942     2.67831
O     -0.42476    -2.04470     1.12469
H     -0.46290    -2.91930     0.69930
O     -1.75551    -1.55692     0.96506
H     -1.60279    -0.72827     0.47796
O     -1.46106     3.70734     2.47409
H     -1.73619     4.60816     2.27855
O     -0.73418     3.38568     1.29446
H      0.13312     3.10740     1.66131
O     -1.17915     1.10600    -0.19139
H     -1.18859     1.95349     0.29195
O     -1.34284     1.50479    -1.55219
H     -0.42981     1.76078    -1.78409
O     -1.33415    -0.92982    -2.85102
H     -1.53103    -0.08033    -2.40796
O     -2.25210    -1.82061    -2.21405
H     -1.68501    -2.59365    -2.05304
O      0.33731    -3.85031    -0.94950
H      0.73045    -3.12377    -1.47733
O     -0.85868    -4.09919    -1.68114
H     -0.60156    -4.79737    -2.29174
O      2.63450    -0.84035     1.11086
H      2.45919    -0.26603     1.87668
O      1.53485    -0.42782     0.30647
H      0.80769    -1.00219     0.64559
O      1.25267     1.96595    -2.30529
H      1.57137     1.05559    -2.47706
O      2.11311     2.35496    -1.24464
H      2.55408     3.11918    -1.62623
