 32
-1213.3062620120727
O      0.68880     0.24757     2.39489
H      0.49387    -0.43684     1.71877
O      1.34838     1.26298     1.63320
H      2.12228     0.79679     1.27535
O      0.82669    -1.19841    -2.66855
H      1.50755    -1.42384    -2.01113
O     -0.06911    -0.43182    -1.84842
H     -0.92611    -0.58447    -2.28589
O     -2.80178    -0.21666    -1.64317
H     -3.48931    -0.10465    -2.30563
O     -2.63146    -1.63362    -1.63307
H     -2.30023    -1.76688    -0.72461
O     -0.32520     2.19568    -0.28861
H      0.24792     2.07167     0.48829
O     -1.62201     1.92800     0.23531
H     -1.88957     1.19016    -0.33012
O     -1.41075    -1.87582     0.79330
H     -1.70179    -1.18553     1.43989
O     -0.03815    -1.51768     0.57715
H     -0.08745    -1.08249    -0.30454
O      2.61635    -1.82266    -0.67196
H      1.96111    -2.21630    -0.08140
O      2.87789    -0.58945     0.01525
H      2.70712     0.05782    -0.70161
O      2.59404     2.49666    -1.07296
H      3.03719     2.90791    -1.82205
O      2.12485     1.29946    -1.68395
H      1.15635     1.41055    -1.64317
O     -1.72768     0.06330     3.63614
H     -0.77799     0.11860     3.42890
O     -2.28141     0.11033     2.32275
H     -2.02413     0.99270     2.00824
