 32
-1213.3144492416227
O      1.85341    -0.51792     0.69723
H      1.98700    -0.64994    -0.26365
O      2.22131     0.85615     0.84599
H      1.34352     1.29568     0.81844
O     -0.30442    -2.22830    -0.41040
H     -1.03182    -1.61151    -0.62528
O     -0.99661    -3.31645     0.19625
H     -0.80199    -3.14454     1.12694
O     -1.06977     0.76178    -1.58139
H     -0.32362     0.29093    -2.00774
O     -1.95552    -0.34032    -1.33223
H     -2.64149     0.09197    -0.79151
O     -0.17600     2.00408     0.60926
H     -0.60693     1.55660    -0.15229
O     -1.08959     1.79119     1.68220
H     -0.70403     0.98588     2.09335
O      3.75271     1.69991    -1.20060
H      3.26750     1.44138    -0.39093
O      2.64534     2.01229    -2.05104
H      2.93915     2.83146    -2.46060
O      2.17484    -0.59518    -1.94928
H      2.40267     0.30788    -2.24744
O      0.88987    -0.80698    -2.53602
H      0.63160    -1.62043    -2.07484
O     -1.09948    -1.59290     2.31779
H     -1.89091    -1.09722     2.05922
O     -0.14010    -0.54850     2.45147
H      0.54585    -0.78667     1.78854
O     -3.37088    -0.28391     1.59963
H     -4.20123    -0.18251     2.07606
O     -3.38236     0.83226     0.71658
H     -2.65839     1.37167     1.10477
