 36
-1364.9744698083011
O      3.91186    -0.23264     0.47585
H      3.79298     0.48929     1.10899
O      3.50031    -1.34340     1.27402
H      4.28556    -1.90046     1.26974
O     -3.08226     0.01896    -0.21447
H     -3.52404     0.84535    -0.46353
O     -3.59477    -0.24349     1.10054
H     -2.79470    -0.13089     1.63088
O     -2.47315    -2.84203    -0.96129
H     -3.07277    -2.12069    -0.73061
O     -1.22906    -2.25505    -0.61236
H     -1.10180    -1.58804    -1.32163
O      0.53596     0.21741    -2.18352
H      0.95854    -0.51401    -1.67635
O     -0.79568    -0.27750    -2.33113
H     -1.31419     0.54761    -2.42514
O     -0.60795    -0.28698     1.44702
H     -0.69484    -1.15769     1.01052
O     -0.02793    -0.59366     2.70471
H      0.82469    -0.14337     2.61325
O      0.83688     2.10287    -0.32755
H      0.80789     1.53333    -1.12399
O     -0.51105     1.98889     0.13201
H     -0.52799     1.08792     0.52261
O     -2.60046     2.58675    -1.41720
H     -1.78765     2.41778    -0.89475
O     -2.28473     1.93397    -2.63986
H     -2.17775     2.66748    -3.25347
O      2.21910     1.35398     2.95801
H      2.11780     2.06486     3.60196
O      2.81206     2.02059     1.85086
H      2.06430     2.07594     1.23012
O      1.55075    -1.66149    -0.60367
H      2.26353    -1.64089     0.06583
O      1.55054    -3.01492    -1.05733
H      0.62866    -3.23891    -0.86650
