 36
-1364.9835564402192
O      0.79752     1.44108     2.97938
H     -0.02913     1.25041     2.49156
O      1.52325     0.22243     2.76394
H      2.21045     0.50974     2.13198
O      1.50964    -2.05815     0.78073
H      1.24893    -2.83771     0.24359
O      0.25477    -1.63732     1.32547
H      0.56898    -0.96618     1.97581
O      1.51210     3.09944    -0.23017
H      0.91999     2.79404    -0.94156
O      0.53978     3.42870     0.76921
H      0.91690     3.00968     1.55666
O     -0.34946    -4.27779    -0.97332
H     -0.57729    -3.41868    -1.37728
O      1.06863    -4.10440    -0.87795
H      1.37514    -5.01478    -0.86020
O     -2.21500     1.54041     1.63916
H     -2.82843     1.18635     0.97623
O     -1.00057     1.02515     1.09621
H     -0.71300     1.73229     0.49097
O     -3.23231     0.50446    -0.66022
H     -2.70649    -0.32739    -0.66812
O     -2.85783     1.04934    -1.91934
H     -3.69806     1.37449    -2.25434
O      2.88336     0.95521     0.56819
H      2.50123     1.80883     0.27202
O      2.38806     0.09010    -0.45697
H      2.14721    -0.72171     0.05460
O     -0.28916     1.78388    -1.67788
H     -1.23228     1.55291    -1.79027
O      0.35163     0.57764    -2.09176
H      1.13283     0.52717    -1.49595
O     -0.88598    -1.77010    -1.72041
H     -0.50937    -0.87394    -1.85440
O     -1.66658    -1.61762    -0.53868
H     -0.98486    -1.62321     0.17132
