 28
-1061.6475602675237
O      1.76482    -0.48867    -1.82064
H      2.04403    -0.82566    -0.95058
O      0.35597    -0.32771    -1.61556
H      0.04188    -1.25431    -1.66476
O      0.94261    -1.72104     1.38109
H      0.66650    -2.51186     0.89182
O      2.18308    -1.39171     0.74240
H      2.37032    -0.52318     1.15805
O     -0.06654     2.06980     0.77303
H     -0.68880     1.34932     1.00401
O     -0.14204     2.08739    -0.65083
H     -0.92880    -3.47394    -2.10914
O     -3.27928     1.53149    -0.17139
H     -3.53068     2.25801     0.40688
O     -2.74700     2.19805    -1.31594
H     -1.79183     2.21126    -1.09133
O     -1.91787    -0.68576     0.18975
H     -2.45562     0.11569    -0.01442
O     -1.24995    -0.24039     1.36904
H     -0.41922    -0.75593     1.33577
O     -0.97770    -3.14182    -0.24882
H     -1.46120    -2.30234    -0.11468
O     -0.42058    -2.89340    -1.53466
H      0.14715     1.18368    -0.90988
O      2.30711     1.14295     1.59553
H      1.48711     1.57616     1.25403
O      3.33442     1.78535     0.84738
H      3.74910     2.31623     1.53152
