 36
-1364.9812181925079
O      3.49747     0.05334     3.68788
H      4.11758     0.71962     3.99438
O      3.06914     0.63708     2.46344
H      3.31545    -0.05625     1.81763
O      0.29186    -2.11108    -1.21329
H      1.04798    -2.24064    -0.60269
O     -0.55803    -1.35019    -0.35476
H     -0.09625    -0.48080    -0.37663
O      0.86021     0.84480    -0.70379
H      0.46716     1.67395    -1.02502
O      1.83681     0.51277    -1.70360
H      1.22080     0.34772    -2.45725
O     -0.01838    -1.10874    -3.75804
H      0.11319    -1.56115    -2.90460
O     -0.19636     0.23654    -3.32995
H     -1.11374     0.22709    -3.00270
O     -2.76380     0.18838    -2.49895
H     -3.52038     0.10229    -3.08697
O     -3.26921     1.00173    -1.45089
H     -3.32116     0.34432    -0.72160
O     -1.60719     2.24598     0.92605
H     -0.74727     1.91405     1.25300
O     -1.29730     2.60563    -0.42070
H     -2.03013     2.17800    -0.89328
O     -2.94762    -0.72412     0.55937
H     -2.08625    -1.10766     0.29116
O     -2.62750    -0.07105     1.78525
H     -2.53755     0.85521     1.49423
O      2.06964    -2.09146     0.75838
H      1.56746    -1.63830     1.45471
O      3.15675    -1.20371     0.48234
H      2.83218    -0.71709    -0.29380
O      0.03118    -0.44667     2.33562
H     -0.94210    -0.40121     2.26957
O      0.37768     0.93354     2.14448
H      1.33130     0.91672     2.36046
