 36
-1364.9825219841732
O      0.19165     3.25694     0.18739
H     -0.49186     3.45695     0.84470
O      0.34914     1.86325     0.44632
H     -0.19959     1.46405    -0.27168
O      0.09534    -0.99834     1.28066
H      1.00335    -0.64096     1.14633
O      0.08713    -2.09229     0.36292
H     -0.12659    -1.60163    -0.46351
O     -2.29831     0.12930     1.69501
H     -1.40077    -0.24696     1.63919
O     -2.87827    -0.33785     0.47074
H     -2.93624    -1.30276     0.63296
O      2.57968    -0.29081     0.69279
H      3.00908    -0.79415    -0.03185
O      2.82655     1.06452     0.29815
H      1.93604     1.45796     0.45524
O     -2.16596     3.08357     3.13600
H     -2.96581     3.60638     3.24311
O     -2.19606     2.82082     1.73095
H     -2.29289     1.84414     1.72010
O     -1.11218     0.55599    -1.32270
H     -1.79013     0.15659    -0.72423
O     -0.34135    -0.58161    -1.73241
H      0.47354    -0.12596    -2.02776
O      3.35101    -1.68086    -1.44449
H      3.35729    -1.01398    -2.14628
O      2.18726    -2.43493    -1.78537
H      1.75944    -2.52179    -0.92378
O      3.00712     1.07201    -2.36992
H      3.10767     1.14711    -1.39645
O      1.58507     1.05288    -2.47936
H      1.32298     1.96471    -2.30748
O     -2.76522    -3.41766    -0.51598
H     -3.26208    -4.21869    -0.32557
O     -2.43225    -2.99335     0.80704
H     -1.45914    -2.93353     0.74978
