 36
-1364.9748612618446
O      1.05990     3.30803    -0.21492
H      0.75875     2.75508    -0.97440
O     -0.16506     3.94092     0.15233
H      0.14855     4.80184     0.44096
O     -3.14727    -0.56469    -0.12765
H     -3.05569     0.29988     0.30782
O     -3.61835    -0.24772    -1.43472
H     -2.81651     0.10028    -1.85325
O     -1.47993    -1.09343     2.35888
H     -1.09012    -1.52715     1.56368
O     -0.34586    -1.01966     3.21801
H     -0.54325    -1.70563     3.86335
O     -1.11098    -1.99566    -0.99274
H     -1.94576    -1.59722    -0.65234
O     -0.44519    -2.27440     0.25041
H      0.41679    -2.60885    -0.04155
O     -0.77741     1.58375     1.25679
H     -0.66431     2.52476     1.01136
O     -2.15720     1.50778     1.64360
H     -2.07411     0.79983     2.29526
O     -0.88926     0.99034    -1.65615
H     -0.75854     0.88455    -0.69899
O      0.36670     1.54617    -2.04309
H      0.95086     0.74936    -2.06428
O      2.37119     1.07290     1.27530
H      2.01548     1.78916     0.73015
O      1.49476     0.01218     0.91216
H      0.74928     0.10508     1.53240
O      1.13918    -1.59623    -2.84325
H      0.25133    -1.50304    -2.47197
O      1.85654    -0.65581    -2.04683
H      2.41537    -1.23734    -1.49054
O      3.20916    -2.36501    -0.47072
H      4.12143    -2.43113    -0.17519
O      2.47352    -2.43374     0.75034
H      2.22589    -1.49290     0.87411
