 20
-758.2986106648149
O      0.76327    -1.38142     1.54888
H      1.04313    -1.79579     0.71390
O      0.84413    -0.00464     1.17039
H      1.76486     0.22573     1.34927
O      3.21964    -1.32891    -0.70099
H      3.71565    -1.95915    -1.23241
O      1.88430    -1.77044    -0.94620
H      1.48468    -0.96954    -1.34317
O     -1.49306     0.86800     2.08293
H     -0.62432     0.52478     1.77360
O     -1.09153     2.06226     2.75461
H     -1.32100     1.84510     3.66274
O     -2.59952     1.23730    -0.37260
H     -2.38662     1.22866     0.57920
O     -1.98983    -0.00288    -0.75033
H     -2.74080    -0.51421    -1.06727
O      0.43552     0.33235    -1.82308
H     -0.44218     0.26688    -1.38627
O      0.07393     0.27871    -3.20385
H      0.27266     1.17946    -3.47498
