 24
-909.9822374015932
O     -1.85145    -1.97213     1.86450
H     -1.89086    -2.87474     2.19400
O     -2.43812    -2.07790     0.56401
H     -1.63315    -2.23543     0.02186
O     -0.78213    -2.09604    -2.00568
H     -1.17690    -1.21493    -1.91807
O     -0.14099    -2.24421    -0.74364
H      0.63646    -1.65228    -0.84234
O     -0.56855     0.93942     1.35008
H      0.11741     1.63000     1.44988
O      0.15133    -0.25445     1.66241
H     -0.58761    -0.90913     1.70052
O     -0.29412     1.36170    -1.77630
H     -0.20160     2.15898    -1.23521
O     -1.38070     0.64694    -1.17274
H     -1.14314     0.66122    -0.22184
O      2.16125     0.28639     0.04194
H      1.50378    -0.04827     0.68667
O      1.68323    -0.31870    -1.16105
H      1.04267     0.34524    -1.48531
O      1.64444     2.89577    -0.12182
H      1.98507     1.97453    -0.12233
O      1.13341     2.96417     1.20707
H      1.81454     3.45758     1.67496
