 12
-454.9742672174084
O      0.67478    -0.05925     1.87858
H     -0.28560    -0.00840     1.93925
O      1.03207     1.32578     1.75820
H      1.29312     1.35278     0.82542
O      1.01078    -0.89932    -0.66922
H      1.01807    -0.80451     0.30122
O      0.98260     0.48763    -1.03877
H      0.02172     0.63115    -1.03783
O     -1.73183     0.34648    -1.00879
H     -2.17547     0.42630    -1.85981
O     -1.88387    -1.05126    -0.72338
H     -0.98192    -1.36306    -0.89884
