 36
-1364.9698651577603
O     -3.72539     0.47586    -0.33619
H     -3.28991     0.63188     0.51626
O     -2.75580    -0.32994    -1.00175
H     -2.19303     0.32431    -1.44340
O     -0.72250    -1.63283     0.98273
H     -0.22447    -2.47197     0.89710
O     -2.07672    -2.07873     0.87467
H     -2.36566    -1.52828     0.11491
O     -1.48206     0.79478     1.52465
H     -1.32127    -0.15574     1.70208
O     -1.64849     1.35312     2.82963
H     -0.99627     2.06965     2.78494
O      0.04939    -1.72294    -1.81268
H     -0.21969    -1.21192    -1.03441
O      0.99979    -0.85440    -2.42898
H      0.43047    -0.09720    -2.66967
O     -0.80085     1.09512    -2.70610
H     -1.18062     1.41744    -3.52844
O     -0.09169     2.24569    -2.22607
H      0.29446     1.84981    -1.40964
O      0.52062     3.56800     1.36450
H      1.20176     2.89079     1.21427
O      0.28236     3.36913     2.76163
H      0.14965     4.27482     3.05118
O      1.82788     1.31412     0.70289
H      2.30209     0.45077     0.66268
O      0.64772     0.98398    -0.05128
H     -0.06258     0.99454     0.63706
O      3.57194    -0.74387    -0.83141
H      2.76951    -0.62406    -1.36106
O      3.01242    -1.08539     0.43468
H      2.69460    -1.99492     0.28075
O      1.70558    -3.34721    -0.48209
H      1.09400    -2.87935    -1.09595
O      0.80990    -3.76028     0.55225
H      0.67737    -4.69396     0.35721
