 12
-454.9730434657184
O     -0.10624    -1.94918     1.25391
H     -0.10525    -2.28468     2.15454
O      0.00843    -0.54153     1.49073
H      0.84766    -0.35520     1.02715
O      2.00988     0.11316    -0.15577
H      2.15826    -0.35135    -0.98693
O      1.65789     1.43346    -0.56651
H      0.69262     1.37452    -0.62949
O     -1.28728     1.06277    -0.48378
H     -1.19045     0.37813     0.19724
O     -1.95169     0.34514    -1.52739
H     -2.82253     0.75483    -1.50887
