 12
-454.97274994905933
O      0.05713     0.41461    -1.68970
H      0.36314     0.78083    -2.52627
O     -0.65656     1.53695    -1.14002
H     -0.85123     1.15881    -0.26089
O      1.44160    -0.96693     1.06310
H      2.08890    -0.94525     1.77463
O      1.96498     0.05286     0.19659
H      1.26381     0.07904    -0.47818
O     -1.06140     0.02008     1.06781
H     -0.19843    -0.41115     1.22547
O     -1.83721    -1.06792     0.55476
H     -1.66082    -0.99811    -0.39168
