 20
-758.2997193176972
O     -2.02945    -2.17508     0.60216
H     -1.86090    -1.51612    -0.08937
O     -1.04633    -1.78419     1.56462
H     -0.38128    -2.47986     1.49295
O      2.46890     0.49117     0.83405
H      2.88097     0.76895     0.00765
O      1.56163    -0.51408     0.39487
H      0.71422    -0.02908     0.39515
O     -1.67699     1.18384    -1.20419
H     -1.58119     1.49119    -0.29211
O     -0.84950     0.01256    -1.14793
H     -0.14100     0.21484    -1.78676
O      1.82424    -0.80009    -2.24473
H      1.79685    -0.86784    -1.27265
O      1.46131     0.58289    -2.38124
H      1.63324     0.73690    -3.31630
O     -1.46359     1.08590     2.49522
H     -1.50482     0.12223     2.39607
O     -0.44349     1.37614     1.53200
H      0.27469     1.72476     2.07396
