 24
-909.9704747958972
O     -2.26587     1.30886     0.26435
H     -1.59898     1.94714    -0.03145
O     -2.45202     1.77200     1.60218
H     -3.39773     1.64946     1.71347
O      0.33073     0.11707    -1.33012
H      0.22559     0.56953    -0.47851
O      1.75915    -0.00559    -1.38256
H      1.87807    -0.93820    -1.12150
O      0.63824     0.48816     1.54500
H      1.19614    -0.30027     1.48494
O     -0.56641    -0.10126     2.06754
H     -1.15941     0.66542     2.08062
O     -0.89190    -2.36967     0.34084
H     -1.25136    -1.53841     0.68858
O     -1.00966    -2.21639    -1.07899
H     -0.48712    -1.40724    -1.24281
O      2.33798    -2.47240    -0.42510
H      3.21149    -2.71038    -0.10495
O      1.69822    -2.10644     0.79583
H      0.77382    -2.37661     0.58976
O      0.38137     2.95141    -1.93348
H      0.39046     2.04024    -2.26197
O      0.23081     2.72363    -0.52757
H      1.14221     2.71849    -0.20499
