 32
-1213.3111779291844
O      1.72370    -2.70927    -0.97248
H      1.88201    -2.46235    -0.03948
O      0.38777    -2.21059    -1.11202
H     -0.13664    -3.00601    -1.27101
O      0.39039     1.01213     2.97807
H      0.33044     0.07939     2.67579
O     -0.96662     1.45390     2.88951
H     -0.89464     2.18319     2.25433
O     -2.26483    -1.15272    -2.33293
H     -1.51581    -0.84265    -2.86556
O     -2.14130    -2.56451    -2.48309
H     -2.96691    -2.77675    -2.93000
O     -1.07050     2.62946     0.28621
H     -1.12940     1.68274     0.04475
O     -0.02573     3.11679    -0.55695
H      0.74985     2.95605     0.01214
O      2.35783     0.91504     0.43366
H      1.85588     0.89613    -0.40518
O      1.86280     2.10387     1.04893
H      1.38090     1.72987     1.81710
O      1.00431     0.87451    -1.87685
H      0.41321     1.64359    -1.90857
O      0.36533    -0.08837    -2.72077
H      0.58237    -0.90298    -2.23124
O      0.48009    -1.33585     1.75218
H      0.09608    -1.30294     0.85645
O      1.87709    -1.50084     1.47573
H      2.14227    -0.58351     1.24060
O     -2.29609    -0.20486     1.16510
H     -1.86167     0.35162     1.83903
O     -1.39585     0.01370     0.07065
H     -1.85476    -0.43131    -0.66264
