 36
-1364.9706108010573
O     -1.45889     2.21004    -3.06628
H     -2.30139     2.32861    -3.51412
O     -1.74076     2.76188    -1.77697
H     -1.79595     1.94914    -1.22217
O     -1.43495     0.45365    -0.48399
H     -0.49184     0.37494    -0.20398
O     -2.15384     0.36523     0.75047
H     -2.21563    -0.60342     0.81846
O     -0.83276    -2.92752    -0.33649
H     -0.72219    -2.23689    -1.00924
O     -1.53811    -2.24860     0.69035
H     -0.89194    -2.26415     1.42845
O      0.29534    -1.03114    -2.39042
H      0.84679    -0.25552    -2.17993
O     -0.48376    -0.59218    -3.49546
H     -0.92835     0.17806    -3.11964
O      1.79785     0.90503    -1.15494
H      1.86358     1.82126    -0.84508
O      1.18893     0.31069    -0.00017
H      1.59794    -0.58158     0.00019
O     -0.75021     1.81333     3.10804
H     -1.57164     1.50773     2.69664
O      0.15919     0.81788     2.65605
H      0.51246     1.18775     1.82850
O      0.83813     3.65383    -0.76864
H     -0.01177     3.46073    -1.19893
O      0.66380     2.98931     0.48516
H      0.54818     3.72508     1.10081
O      1.59727    -2.14782     3.02252
H      1.88455    -2.71220     2.29479
O      0.25908    -1.88300     2.60308
H      0.21953    -0.91223     2.69680
O      2.07998    -2.13407    -0.32702
H      2.45214    -2.52209    -1.12883
O      1.68807    -3.27708     0.43386
H      0.73589    -3.31268     0.20676
