 40
-1516.6451004123796
O      0.70511     2.01724    -0.25672
H      1.64870     2.24643    -0.25252
O      0.16726     2.85757    -1.27716
H     -0.12355     2.19600    -1.93877
O     -0.52025    -0.77926     0.16592
H     -0.97741    -0.44986    -0.64079
O     -1.29596    -1.91035     0.54188
H     -2.09782    -1.45959     0.88054
O     -0.65950     0.65170     2.60906
H     -0.07254     0.28388     1.92209
O     -0.29369     2.02568     2.64393
H     -0.88342     2.41714     1.97629
O     -2.92210     2.17277    -0.32441
H     -3.27657     1.67656     0.43467
O     -1.96894     3.00432     0.35046
H     -1.26245     3.09827    -0.31938
O     -3.49609    -0.73005     1.49815
H     -4.03759    -1.04591     2.22708
O     -3.20989     0.60627     1.89854
H     -2.28599     0.52997     2.24355
O      1.07289    -0.73657    -2.40423
H      0.86140    -1.60832    -2.00333
O      1.97680    -0.15715    -1.46438
H      1.44474    -0.06209    -0.64590
O      3.41139    -2.26049     0.46861
H      2.61240    -2.79134     0.59545
O      3.51643    -2.25931    -0.96395
H      3.05570    -1.42498    -1.20002
O     -1.83234     0.27792    -1.90127
H     -2.25001     1.04026    -1.44027
O     -0.94414     0.92683    -2.81879
H     -0.21926     0.26457    -2.84634
O      2.05097    -0.01347     1.43111
H      2.84870    -0.53953     1.26013
O      2.58397     1.29532     1.62653
H      1.89215     1.66565     2.19306
O      0.30257    -3.04088    -1.29902
H     -0.28319    -2.81038    -0.55153
O      1.29632    -3.85162    -0.66870
H      2.01703    -3.74515    -1.30144
