 28
-1061.6415780694724
O      0.32010    -2.07267     0.05567
H     -0.18097    -2.89730     0.09400
O      1.43675    -2.42924    -0.76221
H      1.26822    -1.85673    -1.55082
O      0.42774     1.47284     0.98157
H     -0.29737     1.92080     1.45266
O      0.64516     0.35031     1.84323
H      1.54024     0.08137     1.58367
O     -1.00306     0.55065    -1.10126
H     -0.33541     0.91319    -0.47692
O     -1.76625     1.70232    -1.45072
H      2.29869     0.27432    -1.72471
O     -2.06069    -0.80608     1.66523
H     -1.09641    -0.84067     1.54349
O     -2.57506    -1.47086     0.51973
H     -2.23251    -0.91464    -0.19961
O     -2.82096     1.67468     1.10038
H     -2.63116     0.75857     1.40934
O     -1.90982     2.42111     1.90725
H     -2.50313     2.97462     2.42385
O      0.90231    -0.60167    -2.62440
H      0.08041    -0.17558    -2.31302
O      1.83428     0.48162    -2.54998
H     -2.26575     1.82940    -0.62859
O      3.00069    -0.83454     0.75329
H      2.53951    -1.55417     0.27555
O      3.33582     0.03482    -0.32428
H      4.27510    -0.13719    -0.44348
