 32
-1213.303661521357
O      1.34623    -1.47156    -2.05058
H      1.07873    -0.54603    -1.93633
O      0.15044    -2.14810    -2.45664
H     -0.56967    -1.55135    -2.18356
O     -0.64683    -1.38810     1.07413
H     -0.13554    -2.16051     0.73284
O      0.35214    -0.35418     1.06348
H     -0.20425     0.39808     1.35575
O      1.85580    -3.95985     0.00179
H      2.38613    -3.15319    -0.07002
O      0.53597    -3.44005    -0.12088
H      0.45595    -3.25688    -1.07996
O     -1.80650     3.83737     1.10062
H     -2.10101     4.62735     0.63358
O     -0.39121     4.02491     1.17410
H     -0.08930     3.37163     0.51187
O      3.31366    -0.00608     0.06688
H      3.92982     0.27520     0.75042
O      2.80957    -1.22377     0.60746
H      1.88642    -0.95777     0.80285
O      0.17713     2.03064    -0.53945
H     -0.62813     1.56254    -0.84346
O      1.16435     1.41305    -1.35036
H      1.81483     1.15653    -0.68159
O     -1.85190    -0.64819    -1.21925
H     -1.47955    -0.79722    -0.32362
O     -2.04990     0.76682    -1.27571
H     -2.82068     0.89647    -0.70718
O     -2.86863     0.71390     1.66515
H     -2.80665    -0.01033     2.29753
O     -1.57191     1.29483     1.81434
H     -1.75991     2.24698     1.68436
