 36
-1364.9762789395909
O      2.18330     0.52573    -0.06397
H      2.66632    -0.19431     0.39236
O      1.11259     0.78764     0.84971
H      0.66655    -0.09120     0.94025
O     -1.41903    -1.28319    -2.45174
H     -0.95749    -2.07702    -2.12055
O     -1.89680    -0.73702    -1.21613
H     -1.72967     0.21783    -1.33405
O      3.58809    -2.15680     0.07883
H      2.83621    -2.53940    -0.40240
O      2.90717    -1.65945     1.22581
H      3.50714    -1.89297     1.94061
O     -1.06305     1.83453    -1.39315
H     -0.37311     1.73514    -2.07618
O     -0.40930     2.61697    -0.39443
H      0.11961     1.94916     0.09729
O     -0.79128    -1.63773     2.39527
H     -1.17374    -0.75681     2.57986
O     -0.30356    -1.41593     1.08147
H     -1.10904    -1.18510     0.58035
O     -2.73213     3.21578     1.88317
H     -2.42348     4.09316     2.12961
O     -2.84957     3.28863     0.46056
H     -1.94028     3.07405     0.17242
O      0.47836     0.46804    -3.11268
H     -0.26259    -0.16792    -3.15553
O      1.43886    -0.36003    -2.46365
H      1.65356     0.13486    -1.64755
O     -1.55919     0.89342     2.29618
H     -2.05624     1.73133     2.11040
O     -0.66306     1.31842     3.32670
H      0.17802     1.14079     2.88666
O      1.44218    -2.85904    -1.53272
H      1.38429    -2.00414    -2.00661
O      0.07969    -3.13101    -1.22245
H      0.03830    -2.92636    -0.27584
