 40
-1516.645139917877
O     -0.17491    -3.18920    -1.99161
H     -0.02856    -4.03055    -2.43351
O     -0.76426    -3.59627    -0.76001
H     -0.08303    -3.27621    -0.12679
O      1.11220     1.19777     1.93078
H      0.60421     0.39650     1.68210
O      0.65121     1.49322     3.24093
H     -0.29891     1.62964     3.09283
O     -1.46471     0.37064    -1.17393
H     -0.64730    -0.02895    -1.54051
O     -2.52395    -0.07706    -2.02820
H     -2.86661    -0.80422    -1.47757
O     -2.51305    -1.62284     0.99733
H     -2.74559    -0.68091     0.95502
O     -2.98889    -2.09721    -0.26311
H     -2.28339    -2.72841    -0.49548
O     -2.05976     1.62776     2.90811
H     -2.56351     2.43060     3.07490
O     -2.37062     1.34195     1.54910
H     -1.70935     1.89689     1.07027
O      3.05631    -0.83950     1.18475
H      2.78192    -0.12036     1.77261
O      3.30823    -0.14107    -0.03722
H      2.60214    -0.51257    -0.60186
O     -0.62935     2.85038    -1.06197
H     -1.10039     1.99825    -1.20277
O     -0.53258     2.87813     0.37033
H      0.39911     2.63073     0.52550
O      0.10787    -1.09057     1.00923
H     -0.83459    -1.38044     1.04837
O      0.83722    -2.31851     0.91826
H      1.74276    -1.95472     1.00711
O      1.17817    -0.25163    -2.77577
H      1.57348     0.59436    -2.48950
O      1.30932    -1.00719    -1.56996
H      0.84095    -1.83843    -1.78957
O      2.23733     2.54102    -0.52817
H      2.80969     1.78607    -0.33110
O      1.85378     2.26319    -1.88025
H      0.96787     2.67593    -1.86515
