 40
-1516.6455741843552
O      3.95414     0.58991    -0.74560
H      3.82824     0.70492     0.21426
O      2.80140    -0.19235    -1.04943
H      3.15257    -1.10548    -1.01753
O     -3.48873    -2.08576    -1.49291
H     -4.36969    -1.85947    -1.81176
O     -2.65306    -1.15227    -2.16873
H     -2.67706    -0.38010    -1.57274
O      1.08166     2.39809     1.03179
H      0.10642     2.52326     1.07942
O      1.33055     2.48916    -0.37470
H      1.70241     1.61412    -0.56833
O      1.91675    -2.53987     0.14556
H      1.09575    -2.49737    -0.37456
O      2.85549    -2.85112    -0.87636
H      3.35338    -3.56408    -0.46743
O     -3.06401    -1.23512     1.00673
H     -3.20050    -1.84576     0.26399
O     -3.57526    -0.04903     0.36084
H     -3.25359     0.64283     0.97743
O     -0.24765     0.03500     2.42204
H      0.71224    -0.05325     2.58909
O     -0.36261    -0.87699     1.31577
H     -1.32995    -1.02695     1.25812
O     -1.31534     1.29693    -1.29616
H     -0.66919     0.62154    -1.61607
O     -0.85574     2.48839    -1.91707
H     -0.06647     2.67751    -1.37555
O      0.31274    -0.65289    -2.11482
H      1.23804    -0.61932    -1.80623
O     -0.14598    -1.91129    -1.59130
H     -1.06141    -1.88395    -1.92688
O      3.06344     0.77041     1.79484
H      2.32693     1.40422     1.67141
O      2.37000    -0.38441     2.25212
H      2.35422    -0.94722     1.46365
O     -1.60443     2.57394     0.95867
H     -1.69651     2.09566     0.10452
O     -2.24763     1.68697     1.87955
H     -1.48610     1.15219     2.19388
