 36
-1364.9741905871197
O      2.17922    -0.52844     2.33899
H      2.41776    -1.24806     1.73583
O      0.77671    -0.44982     2.12783
H      0.67944     0.29947     1.49651
O     -2.71046     2.42763     0.29410
H     -2.67816     1.88837     1.09810
O     -2.14039     1.47124    -0.59884
H     -2.30496     1.83981    -1.48299
O      1.52005    -1.41243    -0.97271
H      0.90920    -2.03611    -0.54502
O      2.74321    -1.71835    -0.29086
H      3.20052    -0.85667    -0.32074
O      0.32767     1.43902     0.30500
H     -0.61595     1.49002     0.00864
O      1.00271     1.18677    -0.93504
H      1.14527     0.20658    -0.92007
O     -1.59282    -1.36453    -1.51795
H     -1.29397    -0.77135    -2.23428
O     -2.99608    -1.09812    -1.49310
H     -3.02060    -0.42697    -0.79614
O     -2.12195     0.12364     2.01491
H     -2.05309    -0.84394     1.87841
O     -1.80302     0.31354     3.39330
H     -0.83721     0.28642     3.35478
O     -0.83847     0.44041    -3.37501
H     -0.49342     0.46455    -4.27222
O     -0.67488     1.78034    -2.93159
H      0.02450     1.65924    -2.25538
O      3.76585     1.75039    -0.63249
H      2.79772     1.77441    -0.57481
O      4.05677     0.56264     0.10289
H      4.45059     0.90650     0.91179
O     -0.21036    -2.59748     0.97832
H      0.09106    -1.87917     1.57104
O     -1.62381    -2.33837     0.95138
H     -1.75861    -2.18254    -0.00490
