 32
-1213.3110592289456
O      0.84878    -1.07606     0.68978
H      1.46550    -0.61486     0.08117
O      1.28518    -0.55784     1.94673
H      1.35600     0.40617     1.73749
O      0.75655    -2.95893    -1.80828
H      0.90763    -2.77812    -0.87040
O      0.60742    -1.63425    -2.30635
H     -0.36533    -1.55608    -2.40013
O     -2.86411    -0.65533    -1.81694
H     -2.58460    -0.85709    -0.89506
O     -2.03823    -1.53003    -2.57713
H     -2.60523    -2.29563    -2.72469
O     -1.79842     0.46104     0.74977
H     -1.22662     0.75035     0.00982
O     -1.78641    -0.96003     0.57693
H     -0.82831    -1.15327     0.68099
O     -0.55954     1.01860    -1.50141
H     -1.26979     1.19469    -2.13650
O      0.21692     2.21640    -1.49026
H      1.02251     1.88789    -1.91716
O      2.33668     0.40200    -2.11128
H      1.75507    -0.37229    -2.25202
O      2.66552     0.20393    -0.73343
H      3.62080     0.07625    -0.74648
O     -0.71526    -0.32888     3.79730
H      0.08370    -0.51861     3.27625
O     -1.06257     0.96725     3.30407
H     -1.51528     0.73998     2.46990
O      1.26838     1.94256     1.22528
H      0.74591     2.23174     0.46007
O      0.75395     2.73089     2.30013
H      0.13447     2.10084     2.72778
