 36
-1364.9779076685666
O      1.64570     2.48967     1.52772
H      2.06589     2.18921     0.68496
O      1.94694     1.39351     2.39021
H      1.17528     0.82614     2.22281
O     -0.57460    -1.32463     2.19917
H     -1.19037    -1.42494     1.44578
O     -0.36960     0.09161     2.14496
H     -0.88775     0.44062     2.88676
O     -1.44534     3.00305     1.62882
H     -1.72918     3.92410     1.60320
O     -0.66344     2.93782     2.81968
H      0.24342     2.91769     2.44091
O      1.69938    -1.42787    -0.25880
H      1.09742    -1.75912    -0.95354
O      1.58481    -2.39640     0.78157
H      0.96880    -1.96114     1.39801
O     -0.91648     1.44253    -0.42136
H     -1.07851     2.02973     0.35475
O     -1.43644     2.20732    -1.50435
H     -1.31636     1.54356    -2.21313
O     -2.05735    -0.97999    -0.06440
H     -1.71092    -0.08812    -0.28610
O     -2.33681    -1.56730    -1.33201
H     -1.77548    -2.35653    -1.29712
O      1.43925     1.52117    -1.59403
H      0.62996     1.69088    -1.07070
O      2.39684     1.13725    -0.60575
H      2.19015     0.19492    -0.45191
O      0.26369    -0.59299    -2.79322
H      0.79636     0.16986    -2.49158
O     -1.00892     0.02521    -3.04207
H     -1.59545    -0.58816    -2.56082
O     -0.03446    -4.28781    -0.29705
H      0.68336    -3.85527     0.20093
O     -0.05049    -3.43585    -1.44401
H      0.28827    -4.00917    -2.13959
