 32
-1213.3159187358817
O     -1.09801    -2.17985     1.15864
H     -1.86141    -1.63884     0.86710
O     -0.49761    -1.25409     2.05835
H      0.45700    -1.32710     1.85674
O      0.31885    -2.47471    -1.03551
H     -0.13102    -2.57286    -0.16875
O     -0.31371    -1.28102    -1.49048
H      0.33652    -0.58163    -1.27175
O     -0.41009     1.39577     2.33304
H     -0.66113     0.45466     2.37899
O     -1.13943     1.81175     1.18034
H     -0.40699     1.91406     0.53843
O     -1.84937     2.32891    -1.77399
H     -2.29072     1.46829    -1.60877
O     -2.74655     3.24655    -1.15328
H     -2.37707     3.30132    -0.26322
O      1.33907     0.76245    -1.07847
H      2.06891     0.70947    -0.44374
O      0.73854     1.99191    -0.68146
H      0.14533     2.17767    -1.42911
O      2.11823    -0.94307     1.75570
H      2.57305    -1.32672     0.98364
O      2.27528     0.45741     1.50099
H      1.52927     0.83435     1.99063
O      3.52801    -1.35855    -1.65765
H      4.32937    -1.87823    -1.75978
O      2.91974    -2.03990    -0.57297
H      2.04748    -2.29376    -0.94544
O     -2.68155    -0.21670     0.38248
H     -2.23650     0.60880     0.65982
O     -2.64754    -0.12672    -1.04181
H     -1.85355    -0.66028    -1.25102
