 36
-1364.970945219687
O      1.93642    -0.00713     1.48997
H      2.20834     0.62753     0.79355
O      0.52625     0.19282     1.48675
H      0.17353    -0.65605     1.17015
O     -0.84013    -2.70347     0.26156
H     -0.09707    -2.95441     0.84376
O     -1.58063    -1.82235     1.11106
H     -2.24392    -1.48315     0.47794
O      1.10268     4.20408     0.56900
H      1.43715     4.97158     1.04104
O     -0.12187     3.94477     1.26983
H     -0.64281     3.54743     0.54713
O     -0.93019    -0.42435    -2.25479
H     -1.84450    -0.15460    -2.06720
O     -1.04493    -1.84702    -2.34546
H     -0.91834    -2.13379    -1.42038
O     -1.11638     2.36961    -0.66464
H     -0.29469     1.97611    -1.03076
O     -1.48039     1.48678     0.38991
H     -0.63375     1.14013     0.75056
O      2.17179     1.93034    -0.31303
H      1.75736     2.76125    -0.00349
O      1.34435     1.61834    -1.43431
H      1.56124     0.67784    -1.57900
O     -3.90060     0.31666     0.09145
H     -3.06553     0.79554     0.25192
O     -3.36345    -0.80805    -0.61731
H     -4.15492    -1.23379    -0.96637
O      1.14931    -3.17914     1.98049
H      1.03496    -3.42747     2.90394
O      2.46926    -2.64137     1.95278
H      2.27435    -1.68944     1.84510
O      1.81507    -1.89089    -0.87407
H      2.65777    -2.34735    -0.98221
O      1.81200    -0.97930    -1.97236
H      1.01396    -1.26427    -2.44340
