 36
-1364.9703126172371
O     -0.90399    -0.17384     2.75773
H     -1.23895    -0.66628     1.98294
O     -0.92249     1.15915     2.25015
H      0.01918     1.30254     2.03130
O      1.26672    -1.76659     3.21568
H      0.52256    -1.15014     3.32638
O      0.98976    -2.19538     1.87582
H      1.00641    -3.16035     1.93544
O      1.54942     1.61091     1.26616
H      1.96215     0.81798     0.83724
O      1.38353     2.50155     0.16842
H      2.07872     3.14195     0.34109
O     -1.67617     2.90181    -2.90298
H     -1.54388     2.99476    -1.93689
O     -0.31021     2.84201    -3.34649
H     -0.41993     2.98945    -4.28982
O      0.65082     0.68836    -2.03027
H      0.24906     1.39088    -2.58459
O     -0.46769    -0.14892    -1.72362
H     -1.03399     0.43472    -1.17697
O     -1.26117     2.91221    -0.25330
H     -0.32764     2.69364    -0.07502
O     -1.88825     1.63191    -0.17202
H     -1.77202     1.40894     0.77681
O      0.39065    -3.05733    -0.91011
H      1.19777    -2.50852    -1.00508
O      0.90152    -4.20385    -0.23633
H      0.72165    -4.89549    -0.88084
O      2.52626    -0.68285     0.34791
H      1.97264    -1.29494     0.88376
O      2.26873    -1.12443    -0.98598
H      1.72416    -0.39081    -1.34464
O     -1.72558    -1.62959     0.67865
H     -1.14236    -1.93371    -0.04059
O     -2.91180    -1.25273    -0.00231
H     -3.53399    -1.87246     0.38727
