 16
-606.6340271948005
O      0.17195     2.56665     0.93032
H      0.82061     1.88976     1.19744
O     -1.02967     1.84315     1.23306
H     -1.61458     2.54561     1.53533
O      1.45491     0.23214     1.45915
H      0.97717    -0.27210     0.78314
O      0.85321    -0.22052     2.67846
H      0.02624     0.28087     2.67110
O     -0.42210     0.15858    -0.73396
H     -0.80481     0.86129    -0.17799
O     -1.29345    -0.94516    -0.41698
H     -1.15324    -1.48157    -1.20981
O      1.11187    -1.42403    -2.68329
H      0.78684    -0.69300    -2.13943
O      0.06782    -2.38600    -2.45092
H      0.54243    -3.06642    -1.96274
