 32
-1213.3081300157412
O      3.87775     1.14093    -0.01073
H      2.99550     1.33275    -0.38543
O      3.57449     0.16152     0.98738
H      2.88802     0.59008     1.51614
O     -1.46319    -2.58712    -0.18323
H     -1.97854    -3.34710    -0.46509
O     -0.79762    -2.23195    -1.39235
H     -1.13242    -1.31973    -1.52437
O     -0.98597     0.68616    -2.97178
H     -0.04366     0.89885    -2.83061
O     -1.32104     0.35280    -1.61634
H     -2.05279     0.95553    -1.40958
O     -1.91475     0.49801     2.85423
H     -1.98778     1.31529     2.34025
O     -2.42931    -0.43354     1.88982
H     -1.59463    -0.66825     1.43248
O      1.54284     0.87109    -2.06619
H      1.80846    -0.05275    -1.86917
O      1.30399     1.38180    -0.74943
H      0.45657     0.95690    -0.51649
O      2.06113    -1.82003     0.06619
H      2.79249    -1.18353     0.23474
O      1.84590    -1.69331    -1.34646
H      0.92572    -2.01813    -1.40873
O      0.78667     0.23817     2.13075
H      0.11263     0.20467     2.82627
O      0.05991    -0.43215     1.09421
H      0.73461    -1.07846     0.78002
O     -3.30763     1.37603     0.12705
H     -3.22610     0.57986     0.69223
O     -2.53672     2.30057     0.91221
H     -3.21307     2.94205     1.15082
