 16
-606.6350516182873
O     -1.74101     0.98377     1.20895
H     -0.98400     0.48937     0.85167
O     -2.76802     0.64325     0.26965
H     -3.38469     0.15012     0.82133
O      2.40706     1.21105     1.53408
H      2.46029     1.75837     0.74352
O      3.08901     0.03264     1.07930
H      3.57844    -0.21729     1.86869
O      0.90472     0.30740    -1.23837
H      0.08473     0.07015    -1.71149
O      0.67763    -0.47403    -0.04251
H      1.56595    -0.45359     0.34236
O     -1.54796    -0.64431    -1.77877
H     -2.07532    -0.17523    -1.10545
O     -1.47632    -1.95770    -1.21506
H     -0.60309    -1.91466    -0.80372
