 16
-606.636798275767
O     -0.67766     1.89425     1.88302
H     -1.07967     2.10629     2.73109
O     -1.83660     1.81137     1.04183
H     -1.42522     1.43674     0.25019
O      0.35834    -0.60604     1.71175
H      0.08366     0.32791     1.70435
O      1.38102    -0.61044     0.70719
H      1.18831    -1.46015     0.26880
O      0.72317     1.26578    -1.08851
H      1.05535     0.62317    -0.42268
O     -0.61677     0.76657    -1.23013
H     -0.86280     1.15359    -2.07388
O      0.72949    -2.64118    -0.91939
H      1.33631    -2.98148    -1.58314
O     -0.32825    -2.12301    -1.73351
H     -0.32779    -1.19490    -1.46074
