 16
-606.6375337027587
O     -1.18269     0.30894     0.87322
H     -0.85936    -0.17638     1.65437
O     -0.20221     1.36069     0.85596
H     -0.05444     1.47574    -0.09539
O      0.25196    -0.85202     2.80433
H      0.75176    -0.14019     3.21658
O      1.27584    -1.59196     2.13481
H      1.12057    -1.33739     1.21337
O     -0.63950     2.12285    -2.56247
H     -0.15717     2.60551    -3.24044
O      0.42956     1.42812    -1.91349
H      0.17986     0.50602    -2.07980
O     -0.60717    -1.15604    -1.28955
H     -0.95717    -0.68703    -0.50038
O      0.60371    -1.69608    -0.75255
H      0.41671    -2.63778    -0.79197
