 28
-1061.6424861814246
O      0.48972    -1.18202    -3.00877
H      0.84717    -1.96616    -3.43600
O     -0.80600    -1.61230    -2.60882
H     -1.35138    -0.92265    -3.01431
O      1.57756     0.99509    -1.87684
H      1.09239     0.24939    -2.27532
O      0.55086     1.95130    -1.64855
H      0.41859     1.89174    -0.68850
O      0.21984    -1.00542     3.78552
H      0.35127    -0.93998     4.73685
O      1.25742    -0.16720     3.27952
H     -0.66766    -1.88627     2.10070
O     -1.04722     1.11822     1.92693
H     -1.04703     0.29530     1.39147
O     -0.83770     2.12284     0.93290
H     -1.63965     2.04737     0.39348
O     -1.83331     1.02021    -2.47669
H     -0.97676     1.45289    -2.29636
O     -2.37461     0.90219    -1.15801
H     -1.95383     0.08944    -0.83859
O     -0.73105    -1.04732     0.43603
H      0.24675    -1.07928     0.28991
O     -0.97416    -2.19469     1.23539
H      0.74431     0.58058     2.92853
O      1.93349    -0.99085     0.62288
H      1.98207    -1.11855     1.58188
O      2.50773     0.32631     0.54046
H      2.34258     0.54051    -0.39662
