 32
-1213.3116692673254
O      2.42191    -2.50895     1.55009
H      3.35308    -2.66561     1.73560
O      2.16790    -1.28663     2.23115
H      2.22664    -0.61770     1.50590
O      0.95807    -2.09286    -0.63432
H      1.39972    -2.44030     0.16303
O     -0.39838    -2.00633    -0.19391
H     -0.80150    -1.48116    -0.91795
O     -0.90745     0.98587    -1.74440
H     -0.56146     1.01285    -2.65898
O     -1.69496    -0.20620    -1.75034
H     -2.40005     0.07509    -1.13588
O     -0.91397     2.36514     0.53261
H     -0.69300     1.89473    -0.29036
O      0.09924     1.91880     1.43288
H     -0.30717     1.11782     1.82283
O      0.58828     0.99884    -3.94854
H      0.74630     1.16876    -4.88214
O      1.27424     2.08347    -3.32283
H      1.70660     1.60209    -2.60034
O      2.23997     0.67345     0.43632
H      1.53495     1.30436     0.70964
O      1.89167     0.40536    -0.92144
H      1.48576    -0.48376    -0.85943
O     -0.46154    -1.40036     3.00666
H      0.50411    -1.40279     2.89518
O     -0.83262    -0.50840     1.95610
H     -0.71279    -1.07030     1.15697
O     -3.19075     0.65444     0.29132
H     -2.74507     1.44086     0.64585
O     -3.75649     0.02958     1.44314
H     -3.00097    -0.46419     1.79039
