 24
-909.9733160312774
O      1.68069    -1.59273    -0.94070
H      1.99783    -2.01347    -0.11681
O      0.68063    -2.53217    -1.35769
H     -0.10883    -1.95684    -1.42714
O     -2.08739    -0.90562    -0.21447
H     -1.29457    -0.88139     0.34044
O     -1.53283    -1.05168    -1.51884
H     -1.41672    -0.13118    -1.81140
O      2.36704    -2.36597     1.52377
H      3.15944    -2.78760     1.86842
O      2.65829    -0.98496     1.77558
H      1.76731    -0.60729     1.69423
O     -2.25944     1.82356     1.19457
H     -2.08117     2.02086     0.26382
O     -1.06463     2.35377     1.76834
H     -1.39012     2.75447     2.58024
O      0.96147     0.72960    -0.04961
H      1.23034    -0.10622    -0.51359
O      0.31698     0.18505     1.11566
H     -0.17053     0.97398     1.43142
O     -0.99215     1.42051    -2.45901
H     -1.47238     2.00943    -3.04813
O     -0.83342     2.24462    -1.30076
H     -0.08685     1.77577    -0.87188
