 32
-1213.3112975849053
O      3.21342     1.07095     1.86295
H      3.72176     1.88797     1.85684
O      3.87553     0.27461     0.87600
H      3.20290     0.28563     0.16545
O      0.71656    -1.85593     0.59590
H      0.73449    -1.47098     1.49501
O     -0.69119    -2.03388     0.38472
H     -0.82793    -1.59291    -0.48564
O     -0.19312     1.83280    -2.29759
H     -0.41182     1.58713    -1.36895
O     -1.42347     1.53385    -2.96277
H     -2.06705     2.04902    -2.46436
O      0.44823    -0.45640     2.85776
H     -0.51609    -0.48519     2.94653
O      0.61031     0.74326     2.10429
H      1.58862     0.78191     2.00736
O     -0.99079    -0.96025    -2.02280
H     -1.22391    -0.13904    -2.50221
O     -0.19004    -1.65875    -2.98244
H      0.68218    -1.27427    -2.79193
O      1.91808    -0.09822    -2.19249
H      1.45393     0.68825    -2.51497
O      1.76824     0.13460    -0.79350
H      1.37717    -0.71534    -0.48523
O     -1.02288     1.11652     0.05620
H     -0.46443     1.04959     0.86276
O     -2.22439     1.70179     0.55380
H     -2.71652     0.89948     0.78477
O     -2.29330    -1.15696     2.27221
H     -1.79203    -1.61533     1.56147
O     -3.38767    -0.66186     1.49763
H     -4.08268    -0.65504     2.16033
