 36
-1364.9825789823376
O      1.27154     2.74366     0.21840
H      1.89539     2.72800     0.95636
O      0.29573     3.70292     0.60689
H     -0.38170     3.11693     0.98520
O     -0.68051     1.25235     1.87722
H     -1.45696     0.73420     1.57344
O      0.39979     0.40621     1.49696
H      0.65409     0.75182     0.61775
O     -0.38789    -2.18608    -0.95590
H     -1.17149    -1.85975    -0.45741
O     -0.28109    -1.24599    -2.02814
H      0.66360    -0.98389    -1.98387
O     -2.13631     0.63565    -1.69713
H     -1.47660    -0.05194    -1.93682
O     -1.30320     1.64912    -1.12956
H     -0.70992     1.89231    -1.86941
O      1.73688     2.44447    -2.43792
H      1.51384     2.66168    -1.50924
O      0.44297     2.42293    -3.03469
H      0.43201     3.23888    -3.54480
O     -2.39048    -1.47609     0.64861
H     -2.11506    -1.71932     1.55791
O     -2.77899    -0.10856     0.78661
H     -2.69639     0.20092    -0.14333
O      1.80151    -2.22243     0.55043
H      0.95353    -2.38561     0.08749
O      1.38040    -1.99380     1.89149
H      0.97602    -1.10563     1.83237
O      2.38909     0.13236    -0.54664
H      2.38311    -0.74569    -0.10601
O      2.22693    -0.25631    -1.92203
H      2.29061     0.61442    -2.34365
O     -1.36310    -2.36295     2.94915
H     -1.64339    -2.56449     3.84623
O     -0.67800    -3.55716     2.56794
H      0.20956    -3.18104     2.39842
