 40
-1516.643644441863
O      3.03006     1.73308    -0.59022
H      2.52813     2.36511    -0.03316
O      4.16444     1.44002     0.22354
H      4.87315     1.65921    -0.38693
O      0.36465     2.79330    -0.15474
H     -0.51368     2.99071     0.22227
O      1.18263     2.84788     1.01032
H      0.90730     2.01896     1.46510
O     -2.74499     2.23411     1.40992
H     -2.06773     1.78085     1.96326
O     -2.02378     3.34211     0.88388
H     -2.26630     4.06218     1.47513
O     -0.48898    -2.41112     3.69333
H     -1.10263    -3.01440     4.11915
O     -1.33461    -1.82963     2.70683
H     -0.86875    -2.08612     1.87723
O      0.04403     0.56026     1.70389
H     -0.56917     0.26044     0.99808
O     -0.91192     0.80322     2.74199
H     -1.18941    -0.12144     2.92314
O     -2.03093    -0.30180     0.32036
H     -1.90421    -1.18646    -0.08056
O     -2.59237     0.41966    -0.78477
H     -2.96563     1.17371    -0.30619
O      1.63770    -0.61067    -0.76578
H      2.15763     0.22240    -0.71571
O      1.77537    -0.93532    -2.15784
H      0.94356    -0.53028    -2.48642
O     -0.53150     0.28731    -2.49724
H     -1.34476     0.26333    -1.95113
O     -0.27768     1.69194    -2.60941
H      0.04442     1.91161    -1.71759
O     -0.10124    -2.30538     0.38588
H      0.50178    -1.64362    -0.01661
O     -1.07402    -2.52255    -0.63553
H     -0.55192    -2.97068    -1.33321
O      0.26741    -3.61014    -2.72775
H      0.19443    -4.47046    -3.14815
O      1.64049    -3.61241    -2.31495
H      1.80253    -2.64644    -2.32200
