 36
-1364.9713625447382
O      1.26903     2.14319    -0.18717
H      0.39131     2.44000    -0.49948
O      1.16164     2.24358     1.22863
H      1.04910     1.31463     1.48017
O     -1.08545    -1.82609    -0.41226
H     -0.48976    -2.56121    -0.68686
O     -1.16774    -1.08551    -1.62660
H     -1.56609    -0.23638    -1.32481
O     -1.04284    -0.76437     3.75374
H     -0.41054    -0.83181     3.01553
O     -0.79913     0.59786     4.15529
H     -0.96302     0.53789     5.10138
O      0.40982    -0.75038     1.48868
H     -0.23314    -1.08176     0.82128
O      1.56885    -1.53233     1.21213
H      1.81969    -1.13816     0.34835
O     -1.68600     2.03470     1.64151
H     -0.96295     2.55377     2.02747
O     -2.70704     2.01994     2.64127
H     -2.45023     1.22742     3.13511
O     -1.95274     1.31641    -0.90263
H     -1.93459     1.60610     0.03523
O     -1.08282     2.26904    -1.51489
H     -0.81436     1.78725    -2.31756
O      1.86753    -0.31419    -1.09175
H      1.65533     0.61631    -0.84287
O      2.78851    -0.15784    -2.16939
H      2.15438    -0.20059    -2.89988
O      0.44219    -0.34687    -3.60494
H     -0.11740    -0.75194    -2.91116
O     -0.14846     0.94217    -3.68047
H     -0.53044     0.93942    -4.56376
O      1.36805    -4.01544     0.01392
H      1.39669    -3.27187     0.64176
O      0.90870    -3.36567    -1.16913
H      1.63394    -2.77331    -1.41480
