 32
-1213.3096309306518
O     -2.17116    -2.28590     0.01624
H     -1.39563    -2.78517    -0.30283
O     -1.66759    -1.84435     1.27961
H     -2.35972    -2.13645     1.87980
O      1.27397    -1.13722     1.05364
H      0.71588    -0.37583     1.32537
O      2.48452    -0.95040     1.78432
H      3.09137    -0.80487     1.04571
O     -2.81153     0.49496     0.36755
H     -2.69785    -0.40602     0.02333
O     -2.48873     1.33058    -0.75252
H     -1.68807     0.90754    -1.12977
O     -0.25645     0.17404    -1.72477
H      0.03751    -0.76255    -1.65459
O      0.88543     0.88620    -1.24331
H      0.54404     1.27914    -0.42182
O     -0.50661     3.83823    -0.33649
H     -0.68182     4.75464    -0.56832
O     -1.57713     3.56720     0.56829
H     -2.05571     2.86814     0.07978
O      3.26610    -0.23112    -0.88918
H      2.36902     0.11030    -1.08666
O      3.29673    -1.44569    -1.62998
H      3.81580    -1.20628    -2.40378
O      0.43688    -3.06469    -0.50622
H      0.75230    -2.47050     0.21308
O      0.77050    -2.29477    -1.66023
H      1.73294    -2.15837    -1.55924
O     -0.38881     0.94181     1.38395
H     -1.35614     0.81134     1.24908
O     -0.31316     1.80764     2.51303
H     -0.45911     2.65708     2.07607
