 24
-909.9810374267004
O     -1.25836     0.27594     1.62610
H     -1.53067     0.60371     0.74317
O     -1.50628    -1.12486     1.52290
H     -0.60706    -1.47936     1.61620
O     -0.34771    -1.61127    -1.51335
H     -0.19028    -0.71628    -1.85095
O     -1.74344    -1.58488    -1.18603
H     -1.70819    -1.58696    -0.21458
O      1.25736     0.86441     2.17024
H      0.29766     0.65560     2.16455
O      1.27162     1.95002     1.24444
H      1.49245     2.70354     1.80190
O     -1.57482     1.80795    -1.89460
H     -0.62629     1.61794    -1.78901
O     -2.11241     1.10247    -0.76668
H     -2.49704     0.31774    -1.18889
O      1.05561    -1.94394     0.72257
H      0.68321    -1.86659    -0.17744
O      2.26422    -1.18994     0.59671
H      2.13084    -0.53146     1.29658
O      0.87413     0.95006    -1.20728
H      1.10586     1.37041    -0.35878
O      2.10797     0.38328    -1.62269
H      2.24968    -0.29123    -0.93069
