 16
-606.6350866403702
O     -2.63158    -0.17303     1.14888
H     -3.31265    -0.34590     1.80478
O     -1.47009    -0.06445     1.98212
H     -0.92805     0.51953     1.42912
O      0.27494     1.13004     0.22076
H      0.86703     1.73838    -0.25647
O      1.06986    -0.06807     0.13612
H      0.39792    -0.67579    -0.22777
O      2.19121     2.35214    -1.24319
H      2.05074     2.28871    -2.19413
O      3.29694     1.45674    -1.04585
H      2.84359     0.71104    -0.62299
O     -1.08783    -1.50128    -0.61258
H     -1.74140    -1.20501     0.05122
O     -0.93192    -2.88161    -0.28513
H     -1.27526    -3.29349    -1.08200
