 20
-758.3084574927526
O     -0.41092    -0.63313     1.37338
H     -0.20857    -0.91741     0.45373
O     -1.27634     0.49177     1.14699
H     -0.67085     1.21453     1.39420
O      0.41725    -1.44324    -1.01064
H      1.25376    -0.97177    -1.12617
O     -0.28431    -1.04499    -2.19827
H     -1.17158    -0.88200    -1.83492
O      1.74968     0.72937     2.00849
H      1.04895     0.04724     1.97261
O      0.98532     1.85732     1.54653
H      1.29383     1.89086     0.62638
O      2.17563     1.45344    -0.83164
H      2.89982     1.96158    -1.21038
O      2.82668     0.21181    -0.52666
H      2.79381     0.24453     0.44459
O     -2.70260    -0.35598    -1.05204
H     -2.41431    -0.06857    -0.16644
O     -3.49728    -1.49393    -0.72694
H     -4.33261    -1.25380    -1.13836
