 20
-758.3100249973947
O     -0.01631    -1.53819     0.67176
H      0.03775    -0.83583     1.34763
O     -1.41642    -1.76411     0.56757
H     -1.68139    -1.05289    -0.03502
O      1.88480     1.16265    -0.28558
H      1.36293     1.45507     0.47665
O      0.84619     0.90797    -1.23806
H      1.11621     0.02076    -1.57216
O      0.19301     1.70285     1.82030
H     -0.66362     1.78197     1.35701
O      0.00738     0.45787     2.48716
H      0.27072     0.66417     3.38986
O      1.53364    -1.48501    -2.11927
H      2.27100    -2.03456    -1.83588
O      0.38787    -2.29796    -1.84832
H      0.22242    -2.07816    -0.90714
O     -1.75085     0.86680    -0.74987
H     -0.77673     0.93683    -0.89724
O     -1.96818     1.87342     0.24034
H     -2.26065     2.61962    -0.29259
