 36
-1364.9793991756565
O      3.00483     1.80030     0.68253
H      3.58691     2.24821     1.30494
O      2.86309     2.78657    -0.34373
H      1.89928     2.95254    -0.29248
O     -1.26935    -3.52726     2.08551
H     -1.44895    -4.07511     2.85427
O     -0.29967    -2.61946     2.61106
H      0.32121    -2.56715     1.84594
O     -2.33577    -1.26431     1.11390
H     -2.12703    -2.17829     1.39267
O     -2.74843    -1.42602    -0.24950
H     -2.93810    -0.48810    -0.44900
O     -0.81198    -0.79343    -2.22610
H     -1.56122    -1.27510    -1.84977
O      0.24681    -1.70893    -1.93362
H      1.01880    -1.22272    -2.27475
O     -2.88956     1.99442     0.26684
H     -3.55634     2.61614    -0.04037
O     -2.71876     1.18877    -0.89106
H     -1.83170     1.48357    -1.20500
O     -0.28946     2.11177    -1.49288
H      0.51452     1.66141    -1.83432
O      0.18108     2.81179    -0.34001
H     -0.12364     2.22547     0.37519
O      1.17670    -2.30015     0.46839
H      0.70843    -2.17834    -0.38881
O      1.83421    -1.04131     0.62991
H      1.08092    -0.43803     0.81953
O     -0.20208     0.40856     2.73606
H     -0.17528    -0.55008     2.88817
O     -0.31230     0.44016     1.32368
H     -1.14140    -0.06911     1.14895
O      2.04578     1.12546    -2.39676
H      2.71735     1.70654    -2.00007
O      2.50162    -0.18285    -2.05471
H      2.57148    -0.15924    -1.08851
