 28
-1061.6399967838427
O     -0.51252    -2.63731    -0.49684
H     -0.47429    -2.26432     0.40762
O      0.75619    -2.20834    -1.00192
H      0.50442    -1.56984    -1.68868
O     -0.61333    -1.13821     1.68839
H     -0.96643    -0.22426     1.74330
O      0.21475    -1.22319     2.84526
H      1.08252    -1.06483     2.44892
O     -0.00435     1.46033    -0.05358
H      0.68500     0.90569     0.37166
O      0.28846     2.76916     0.42425
H      2.62336     0.95459    -3.50479
O     -2.40729    -0.63952    -0.76421
H     -1.95157    -1.49686    -0.82758
O     -1.81904     0.08241    -1.85232
H     -1.46265     0.84759    -1.37838
O     -2.74454     1.59665     1.11859
H     -2.79328     0.77413     0.60822
O     -1.77754     1.22624     2.10222
H     -2.27435     1.24128     2.92871
O      1.22781     0.29565    -2.43270
H      0.87453     0.98234    -1.84592
O      2.58083     0.73503    -2.56919
H     -0.40786     2.84830     1.08808
O      1.86628    -0.35935     0.54035
H      1.58202    -1.16615     0.05011
O      3.27627    -0.35835     0.34053
H      3.32926    -0.03936    -0.57023
