 32
-1213.30637975683
O      2.25585    -1.00035     3.49565
H      2.66369    -1.29943     4.31400
O      0.90523    -1.45076     3.68552
H      0.40576    -0.63188     3.50381
O     -0.12180    -1.22824    -2.82001
H      0.59406    -0.69236    -2.41651
O     -0.37437    -2.19941    -1.79131
H     -1.30787    -2.00115    -1.60638
O     -0.55312     0.61253     2.63979
H      0.02126     1.18725     2.08761
O     -1.13212    -0.22027     1.63020
H     -0.33769    -0.65803     1.26027
O      0.68283     2.67101    -0.09893
H     -0.27730     2.48613    -0.21320
O      1.07607     1.69145     0.86010
H      1.14695     0.89657     0.30399
O      1.68508     1.59565    -2.38216
H      1.42379     2.17228    -1.63644
O      1.71801     0.33855    -1.69515
H      2.66144     0.16321    -1.60337
O     -1.83788     2.01643    -0.70247
H     -2.33211     1.45964    -1.32623
O     -2.53903     1.79812     0.52755
H     -2.02062     1.06662     0.92110
O      0.92898    -1.29222     0.38100
H      0.64986    -1.85154    -0.37140
O      2.28206    -1.69285     0.58820
H      2.27747    -1.77339     1.55478
O     -2.83555    -1.11677    -1.82083
H     -3.54986    -1.50283    -2.33728
O     -2.48451     0.01404    -2.63289
H     -1.59196    -0.26173    -2.91987
