 36
-1364.975265283649
O      0.05349     2.61606     1.71235
H     -0.92178     2.68210     1.63790
O      0.19240     1.49296     2.59190
H      1.11547     1.24443     2.43247
O     -2.60669     0.70678    -1.54422
H     -1.75010     1.15766    -1.45086
O     -2.77960     0.22088    -0.20696
H     -3.25295    -0.60579    -0.34736
O      2.34023    -0.54665     0.31523
H      1.82919     0.20113    -0.06319
O      2.26041    -0.29652     1.71997
H      1.57444    -0.95010     1.97097
O     -0.01399     1.72400    -1.45112
H      0.38928     1.29929    -2.23329
O      1.09199     1.65192    -0.54734
H      0.77574     2.20122     0.20135
O      0.06952    -1.77058     2.20174
H     -0.02952    -2.39431     1.46158
O     -0.90175    -0.80649     1.76985
H     -0.55204     0.01884     2.15034
O     -3.02754     3.43200     0.41066
H     -3.70959     3.87461     0.92412
O     -2.60475     2.43796     1.34225
H     -2.77497     1.62057     0.83487
O      1.38149    -0.90045    -2.64798
H      0.58582    -1.07285    -2.09371
O      0.89824     0.19475    -3.43090
H      1.63119     0.31495    -4.04052
O     -0.35401    -2.64251    -0.26616
H      0.49272    -2.96083    -0.65333
O     -0.57991    -1.41592    -0.98118
H     -0.85282    -0.82958    -0.25106
O      2.04304    -3.33951    -1.15535
H      2.36342    -2.55190    -1.61764
O      2.54626    -3.18416     0.17171
H      2.54344    -2.21048     0.28438
