 24
-909.9791190397418
O     -2.20051     1.36899     0.67309
H     -2.07764     0.42694     0.41682
O     -2.49495     1.96333    -0.59072
H     -3.36544     2.32962    -0.40890
O      0.95522    -2.82108    -1.33962
H      0.16541    -2.25075    -1.46007
O      1.99365    -1.86300    -1.53134
H      2.29644    -2.06220    -2.42393
O      0.53335     1.15089    -1.47254
H      0.32107     1.93465    -0.94331
O      1.63208     0.64004    -0.70262
H      1.67396    -0.28962    -0.99599
O     -1.55171    -1.11927    -0.06757
H     -0.75171    -1.36230     0.44615
O     -1.05188    -1.04220    -1.40869
H     -0.63330    -0.15616    -1.43531
O      0.28385    -0.97309     2.60717
H      0.47325    -0.02673     2.48395
O      0.66899    -1.46422     1.32171
H      1.31275    -2.15520     1.51461
O      0.98472     1.55354     1.68688
H      1.48056     1.15441     0.95014
O      0.21866     2.49698     0.92709
H     -0.69024     2.15170     1.02406
