 24
-909.9755155871302
O     -2.52981    -2.28127     0.41591
H     -1.71738    -2.33711    -0.10845
O     -2.13671    -1.41128     1.47393
H     -2.37073    -0.54124     1.10341
O      0.22266    -1.75505    -0.63342
H      0.40303    -1.17625     0.14022
O      0.30828    -0.81912    -1.71790
H      1.25530    -0.87568    -1.92389
O      2.97771    -0.51216    -1.44723
H      3.93276    -0.63359    -1.46997
O      2.84324     0.56174    -0.51993
H      2.40918     0.11348     0.22242
O     -0.08007     1.88028    -1.90152
H     -0.08834     0.91334    -1.77961
O      0.74328     2.32041    -0.82287
H      1.55844     1.81183    -0.94911
O      0.31168    -0.84630     2.50336
H     -0.56362    -1.17701     2.21176
O      0.72167    -0.09208     1.37022
H      0.08574     0.65196     1.37385
O     -2.40116     1.10812     0.47991
H     -3.08490     1.69520     0.81382
O     -1.22298     1.73357     0.97809
H     -0.85129     2.15728     0.17950
