 36
-1364.9768174270837
O      2.81411     2.69084    -0.40479
H      2.80511     1.78728    -0.02217
O      1.79406     3.35218     0.34107
H      1.01312     2.82205     0.12313
O     -2.73143    -1.58271    -0.21190
H     -2.53773    -0.63281    -0.34379
O     -3.86093    -1.55823     0.65977
H     -3.49920    -1.10495     1.43782
O     -0.23564    -0.44786     1.72205
H      0.34044     0.13543     1.19409
O      0.65539    -1.48014     2.14911
H      0.30563    -2.20588     1.60192
O      1.27329    -1.19374    -1.62103
H      0.71528    -1.95545    -1.36084
O      0.33810    -0.33819    -2.28522
H      0.94705     0.20467    -2.82770
O     -1.94059     0.99459    -0.21156
H     -2.12727     1.30043     0.69547
O     -0.57059     1.36572    -0.36017
H     -0.27549     0.78310    -1.09072
O     -2.65703    -0.09142     2.69485
H     -1.72505    -0.25190     2.41935
O     -2.77978     1.28755     2.35396
H     -2.82616     1.71169     3.21735
O      1.38152     2.50677    -2.63473
H      2.03498     2.72099    -1.92563
O      2.05511     1.45220    -3.32901
H      2.18616     1.84569    -4.19636
O      3.03148    -0.79694     1.06383
H      2.35656    -1.09425     1.69533
O      2.25162     0.19843     0.39100
H      1.96362    -0.29291    -0.41274
O     -0.72782    -3.11275     0.53322
H     -1.54474    -2.59369     0.32063
O     -0.16610    -3.26302    -0.76346
H     -0.19841    -4.21492    -0.88565
