 28
-1061.6424459409411
O     -2.72549    -0.57721     1.55444
H     -2.75986    -0.02269     0.74869
O     -2.42691     0.38462     2.56112
H     -1.46757     0.30522     2.63806
O      0.35955     0.32028     1.44949
H      0.15990    -0.58111     1.12058
O      1.52207     0.07941     2.23519
H      2.20501     0.22295     1.56137
O     -0.10673    -2.09713     0.45352
H      0.33422    -2.18990    -0.41355
O     -1.44587    -2.48367     0.15364
H      0.19203    -0.27133    -1.90136
O     -0.33189     2.38713    -0.08646
H      0.06547     1.74476     0.53468
O      0.51964     2.32503    -1.23442
H      1.41070     2.35289    -0.84482
O     -2.23910     0.57572    -0.81056
H     -1.60421     1.31320    -0.67471
O     -1.44445    -0.39046    -1.50737
H     -1.63480    -1.20970    -1.00889
O      1.13369    -1.89723    -1.91039
H      1.10804    -2.19615    -2.82541
O      1.14619    -0.47864    -2.03837
H     -1.92306    -2.04835     0.88489
O      2.85343     0.41463    -0.14165
H      2.23785     0.16505    -0.86090
O      2.99274     1.81549    -0.34314
H      3.84618     1.88622    -0.78160
