 32
-1213.3076132103354
O      2.29182    -0.00949    -1.84232
H      1.32315     0.13516    -1.81494
O      2.45630    -1.31029    -1.28462
H      2.62781    -1.10711    -0.35272
O      1.82511    -0.61823     1.47117
H      1.40393     0.26337     1.51817
O      0.94470    -1.45191     2.22741
H      0.55306    -1.97329     1.51175
O     -1.36097     1.31020    -1.38792
H     -0.97744     1.88601    -0.69865
O     -0.36748     0.29539    -1.51063
H     -0.42564    -0.14255    -0.64016
O      3.33301     1.71144    -0.09024
H      3.08197     1.11550    -0.82410
O      2.55703     2.85702    -0.44597
H      3.22396     3.54885    -0.46026
O      0.76414     1.85718     1.24749
H      1.38435     2.34922     0.66829
O     -0.49974     2.46691     0.96114
H     -1.07135     1.84076     1.42504
O     -0.09443    -2.24051    -0.42885
H      0.70647    -2.20222    -0.97926
O     -0.99956    -2.98624    -1.23822
H     -1.62379    -2.30711    -1.52517
O     -3.62800    -1.21276    -0.19195
H     -4.48575    -1.24906     0.24585
O     -3.89174    -0.46967    -1.37913
H     -3.23470     0.23959    -1.29395
O     -1.79296    -0.50351     2.56566
H     -0.88109    -0.76894     2.75594
O     -1.62772    -0.09999     1.19883
H     -2.30555    -0.63772     0.74396
