 28
-1061.6335820097813
O      1.41027    -3.02977    -1.07694
H      1.41362    -2.83951    -0.12816
O      0.73189    -1.89553    -1.60806
H      1.45461    -1.28748    -1.82952
O      1.81195    -1.37746     2.68267
H      2.24932    -1.66644     3.48934
O      2.32695    -2.27858     1.70999
H      2.84617    -1.67462     1.14351
O     -0.81690     0.65192    -1.70592
H     -1.57710     1.27534    -1.76509
O     -1.55917    -0.55597    -1.44658
H     -0.25386     0.60514    -0.08922
O     -3.16464     1.78435    -1.41982
H     -3.17368     1.97416    -0.46242
O     -4.03560     0.64793    -1.49936
H     -3.37024    -0.05444    -1.52872
O     -2.92359     2.24024     1.24120
H     -3.45083     2.78909     1.82810
O     -1.62795     2.84666     1.38011
H     -1.06871     2.04392     1.37510
O      1.19659     0.78410     1.16170
H      1.31697     0.07132     1.81345
O     -0.19971     0.62659     0.89403
H     -0.82984    -1.19557    -1.52681
O      2.72764    -0.00568    -0.88194
H      2.15004     0.35794    -0.17511
O      3.61341    -0.82968    -0.12325
H      4.43286    -0.32429    -0.16014
