 40
-1516.6419384291091
O     -0.35044     2.98467     1.62854
H     -0.25316     2.80317     0.66693
O      0.95530     3.51590     1.88467
H      0.84043     3.86147     2.77376
O      3.77960    -1.14481    -0.30038
H      4.44957    -1.58034    -0.83479
O      2.73793    -2.11526    -0.32055
H      2.41506    -2.06250     0.59988
O      0.65113    -0.51442    -2.56592
H     -0.24399    -0.15922    -2.72539
O      0.39378    -1.22069    -1.35096
H      1.26664    -1.61962    -1.15447
O     -2.09655     0.59109     1.86016
H     -1.53076     1.34817     2.07660
O     -1.49802     0.15902     0.64741
H     -0.59975    -0.13958     0.93147
O     -1.93562     0.29479    -2.74407
H     -2.43928    -0.48669    -2.42706
O     -2.49097     1.35345    -1.97100
H     -2.15697     1.14773    -1.08458
O      0.15626     2.36233    -0.87109
H      1.02922     1.98513    -1.08019
O     -0.12999     3.25392    -1.94872
H     -0.90736     2.80877    -2.31891
O      2.61092     1.45961     1.26514
H      2.10006     2.28649     1.36303
O      2.76871     1.39471    -0.15435
H      3.15640     0.50865    -0.24820
O     -2.09684    -3.42379     1.38192
H     -1.91987    -3.25071     0.43625
O     -1.19320    -2.51774     2.02081
H     -1.75872    -1.78350     2.29811
O      0.77413    -0.37666     1.88972
H      1.56183     0.19407     1.73014
O      1.29043    -1.70898     1.87248
H      0.43836    -2.19221     1.86474
O     -1.81147    -2.63003    -1.20416
H     -1.00643    -2.07256    -1.32944
O     -2.87444    -1.67192    -1.22784
H     -2.73423    -1.20670    -0.38723
