 40
-1516.6402832038877
O     -0.90460     0.36992    -2.06703
H     -1.49704     1.06768    -2.38866
O      0.23620     1.15089    -1.69976
H      0.97805     0.58667    -2.00221
O     -2.38009     2.15949     1.63088
H     -1.54332     2.57573     1.86967
O     -2.03215     1.61313     0.36039
H     -1.91915     0.65523     0.54511
O      2.02956    -1.82603     1.74548
H      1.80096    -0.90769     1.47235
O      1.33321    -1.93173     2.99494
H      1.16265    -2.88247     2.97729
O     -1.48831    -1.00323     0.65058
H     -1.39781    -1.65780    -0.07725
O     -1.33274    -1.80490     1.82280
H     -0.51489    -1.43361     2.18931
O     -2.74043     2.67836    -1.93482
H     -2.69083     2.34572    -1.01331
O     -1.77727     3.73101    -1.85827
H     -2.31516     4.50839    -2.03280
O      2.44726    -0.32852    -1.83471
H      2.81304     0.11906    -1.05816
O      2.38673    -1.68107    -1.36594
H      1.55894    -1.98171    -1.78851
O      0.53176     3.60544     0.09911
H     -0.31867     3.55189    -0.37181
O      0.13734     4.04846     1.39573
H      0.56722     4.90761     1.44995
O      0.38855    -4.16582     1.62800
H     -0.44413    -3.68358     1.53097
O      1.05242    -3.88042     0.39494
H      1.61274    -3.11765     0.65977
O      1.15136     0.57138     1.02266
H      0.51535     0.48807     0.28885
O      2.15386     1.43708     0.48282
H      1.62895     2.25103     0.35424
O     -0.09244    -2.18427    -2.24450
H     -0.51688    -1.30466    -2.24254
O     -0.82043    -2.85668    -1.21515
H     -0.11300    -3.38784    -0.78989
