 32
-1213.3095922703883
O      3.88586    -0.15363     1.33706
H      4.08976     0.38300     0.54761
O      4.96437    -1.08492     1.34248
H      5.32389    -0.93220     2.22072
O     -1.32870    -0.50533    -1.96405
H     -0.81683     0.28198    -1.69007
O     -0.86391    -1.51119    -1.06534
H     -1.52824    -1.47547    -0.34991
O     -3.52672     1.01269    -0.27973
H     -2.91418     1.69111    -0.61027
O     -3.84803     0.23583    -1.43709
H     -2.96507    -0.10369    -1.69522
O     -0.23604     1.82325    -1.29559
H      0.66460     1.85234    -0.93522
O     -1.00756     2.41696    -0.24833
H     -0.87848     1.75422     0.46525
O      2.57288     1.20135    -0.98001
H      2.34533     0.24531    -1.02575
O      3.99555     1.11784    -1.04077
H      4.21061     2.00499    -1.34274
O      1.50545    -1.27470     0.71423
H      2.39161    -1.01464     1.03808
O      1.72505    -1.28098    -0.70722
H      0.80772    -1.47932    -1.00303
O     -0.86019     0.08011     2.66902
H     -1.58159    -0.53287     2.47768
O     -0.45604     0.40460     1.34364
H      0.24183    -0.26469     1.14228
O     -3.97782    -1.91289     0.98263
H     -4.44011    -1.64171     0.17809
O     -2.75222    -1.21017     0.84254
H     -3.05839    -0.29613     0.63457
