 12
-454.9717417320138
O      0.08444    -2.59540     0.39549
H      0.09820    -3.25026    -0.30837
O     -0.00398    -1.38470    -0.36291
H      0.83578    -0.95206    -0.12869
O      1.93183     0.30267     0.44340
H      2.88231     0.43894     0.39911
O      1.47214     1.15003    -0.61121
H      0.65736     1.47508    -0.20389
O     -1.26190     1.08858     0.38662
H     -1.22573     0.17006     0.07608
O     -2.38020     1.60204    -0.33991
H     -3.04990     1.65599     0.34975
