 20
-758.3096837066457
O     -1.06682    -1.52938     1.67870
H     -1.22152    -1.42947     0.72725
O      0.22560    -0.93335     1.85023
H      0.75769    -1.34947     1.14534
O      1.34049    -1.50392    -0.51856
H      1.20771    -0.66275    -1.00038
O      2.64204    -1.30819     0.03446
H      2.93842    -2.22006     0.09211
O      0.26785     1.66070     1.12025
H      0.25027     0.75594     1.51106
O     -1.07857     2.10761     1.25545
H     -1.57806     1.38294     0.84957
O      1.13895     0.81654    -1.81627
H      1.89645     1.36065    -2.05436
O      0.13603     1.78365    -1.50886
H      0.26867     1.91234    -0.53893
O     -2.14454     0.25385    -0.89866
H     -1.47852     0.74313    -1.40767
O     -1.61063    -1.06512    -0.97970
H     -2.34130    -1.54223    -1.38749
