 36
-1364.976637649508
O     -0.73698     2.33688     2.03015
H     -0.74443     1.57212     2.64067
O     -1.90886     2.05621     1.25936
H     -1.89968     2.77164     0.59845
O     -1.63764    -0.87989     2.95731
H     -1.67485    -1.41266     3.75757
O     -0.46509    -0.10384     3.19000
H      0.15487    -0.48324     2.52434
O      1.27885     1.68726     0.37970
H      0.58619     2.08932     0.95685
O      1.23267     2.43569    -0.82859
H      0.28465     2.44012    -1.03240
O      1.67373    -2.98533    -1.60832
H      2.25375    -2.19861    -1.60041
O      1.64612    -3.37287    -0.22707
H      0.68333    -3.32686    -0.07636
O     -1.64116     3.39503    -1.00108
H     -1.73391     4.23452    -1.46334
O     -2.80788     2.68621    -1.41920
H     -2.43255     1.78432    -1.46719
O     -1.88910    -0.26054    -0.03796
H     -1.98661     0.50841     0.55265
O     -1.48946     0.39654    -1.24779
H     -1.14251    -0.36432    -1.75618
O      2.47031    -1.26508     1.19955
H      2.33411    -2.14545     0.79443
O      1.10422    -0.83657     1.19233
H      1.16107     0.01109     0.69874
O      3.01962    -0.64640    -1.50779
H      3.04090    -0.53624    -0.54236
O      1.77621    -0.03659    -1.87836
H      1.88574     0.89080    -1.59911
O     -0.92517    -2.68948    -0.51698
H     -1.31541    -1.92734    -0.05324
O     -0.81993    -2.12966    -1.84468
H      0.08564    -2.42079    -2.06695
