 40
-1516.6526167467086
O      1.96439     3.68038     1.95463
H      2.52887     3.15869     1.34543
O      2.28085     5.01551     1.58864
H      2.62380     5.35077     2.42012
O      1.57494    -1.43813     0.31357
H      1.86981    -1.13088    -0.57219
O      1.22668    -0.18313     0.89938
H      0.24753    -0.12957     0.78117
O      0.74069    -0.02781    -2.53853
H      0.36511    -0.91013    -2.35068
O      2.03948    -0.19656    -1.97106
H      2.26022     0.73778    -1.75530
O     -2.33635     1.55475    -1.15502
H     -2.60421     1.00771    -0.40096
O     -1.91256     0.56258    -2.08831
H     -0.97711     0.78044    -2.23334
O     -0.35176     2.55006     1.12867
H      0.38431     3.05743     1.52484
O     -0.29120     3.01138    -0.22658
H     -1.07990     2.57139    -0.60117
O      2.16169     2.23521    -1.02190
H      1.29207     2.57728    -0.71919
O      2.79426     1.82547     0.19102
H      2.24919     1.05283     0.46111
O     -1.43199    -0.23412     0.83932
H     -1.79350    -1.09085     1.16563
O     -2.27744     0.73088     1.45540
H     -1.61689     1.43842     1.53135
O     -2.44298    -3.62561     0.62633
H     -2.37189    -3.01621    -0.13281
O     -2.01595    -2.75346     1.68322
H     -1.11545    -3.10916     1.82296
O      0.42580    -3.67247     1.23170
H      0.90937    -2.87361     0.94067
O      0.13068    -4.26830    -0.04080
H     -0.74583    -4.63636     0.14619
O     -0.48246    -2.23590    -1.75616
H     -0.22551    -2.95667    -1.14642
O     -1.85063    -2.01366    -1.40942
H     -1.94185    -1.06082    -1.61623
