 36
-1364.9698716256373
O      1.50272     1.65927     1.15453
H      1.74704     1.47198     0.22563
O      1.47501     0.33543     1.68672
H      0.53230     0.07303     1.56949
O     -0.07705    -1.85190    -1.44773
H      0.63540    -1.20583    -1.67246
O     -1.24706    -1.03319    -1.40847
H     -1.34827    -0.85541    -0.45881
O     -1.04377    -0.38961     1.49432
H     -1.77681     0.20525     1.77465
O     -1.27205    -1.54756     2.30172
H     -0.47400    -2.04463     2.06163
O      3.37060    -1.41369     0.22969
H      2.70417    -1.85533     0.77756
O      3.92971    -0.45009     1.12457
H      3.11488    -0.00076     1.43437
O     -2.94277     1.32134     2.21480
H     -3.59800     1.33320     2.91939
O     -3.73733     1.56352     1.04283
H     -3.14591     2.17182     0.56911
O     -0.81586     1.85305    -0.34405
H     -0.33910     2.17286     0.43453
O     -1.85725     2.82165    -0.51546
H     -1.98945     2.68219    -1.46381
O      2.00519    -0.23289    -1.72299
H      2.63522    -0.48801    -1.00838
O      1.72501     1.14273    -1.44627
H      0.88849     1.24868    -1.93717
O     -0.52975     0.98009    -2.95968
H     -0.98785     0.23372    -2.51798
O     -1.59813     1.90960    -3.09300
H     -1.51593     2.15027    -4.02023
O      0.56334    -4.12192     0.89658
H      1.46204    -4.44699     0.80017
O      0.79518    -2.72028     0.90418
H      0.44100    -2.47124     0.01548
