 24
-909.976967772469
O     -2.76619     1.23614     1.32360
H     -3.46514     1.49321     1.93299
O     -2.61810    -0.14974     1.60850
H     -2.37911    -0.47535     0.72805
O      1.67530    -2.09509    -1.07984
H      1.50741    -1.77215    -0.17410
O      1.02925    -1.07409    -1.84781
H      1.67216    -0.33593    -1.79510
O      2.55647     0.90383    -0.16366
H      1.68934     1.35147    -0.08963
O      2.74759     0.95083    -1.58394
H      3.69289     0.78403    -1.64142
O     -1.54303     0.51622    -1.59853
H     -1.45321     0.30501    -2.53251
O     -1.41465    -0.76806    -0.97731
H     -0.46654    -0.98462    -1.18215
O      0.93292    -1.13181     1.36450
H      0.54131    -0.22995     1.33552
O     -0.20272    -1.93510     1.67722
H     -0.08070    -2.08047     2.62094
O      0.10701     1.93923    -0.03504
H     -0.49767     1.42989    -0.61651
O     -0.10581     1.32647     1.24595
H     -1.07585     1.41647     1.36860
