 40
-1516.6404520669214
O      2.55677     3.30932    -1.39731
H      3.22358     3.74542    -1.93686
O      3.29129     2.25259    -0.78620
H      3.10039     1.50100    -1.39510
O      1.82830    -1.09405     1.48615
H      1.60395    -0.17907     1.75448
O      3.12439    -0.87478     0.94067
H      3.64649    -1.51827     1.42798
O      1.51373     1.49757     1.30180
H      2.22077     1.90084     0.77173
O      0.49880     2.48951     1.35786
H      0.04197     2.40383     0.49533
O     -1.56522    -2.70592     0.63331
H     -0.92580    -2.78832    -0.09484
O     -0.74504    -2.90135     1.79223
H     -0.79243    -2.02221     2.19199
O      0.28062     2.06278    -2.02224
H      1.02758     2.64395    -1.78737
O     -0.68920     2.50016    -1.06576
H     -1.39694     1.82864    -1.18858
O      2.46179     0.20630    -2.26141
H      1.50046     0.28692    -2.11126
O      2.77202    -1.06490    -1.69455
H      2.96522    -0.85804    -0.75781
O     -4.42508    -2.12467     1.04540
H     -3.55869    -2.55512     1.02772
O     -4.54883    -1.83430    -0.34601
H     -5.49833    -1.90093    -0.48257
O     -2.22469     0.32242    -1.31486
H     -1.41434    -0.22935    -1.28590
O     -2.73387     0.08913     0.01111
H     -3.46904    -0.53549    -0.17278
O     -1.20580     0.88704     2.87540
H     -0.65912     1.67324     2.73332
O     -0.75754     0.09021     1.78173
H     -1.53621     0.09929     1.18325
O      0.33975    -2.15089    -1.26274
H      1.27329    -2.07926    -1.54762
O      0.12903    -0.78862    -0.88487
H      0.28587    -0.79065     0.08349
