 32
-1213.3060256038261
O      2.04787    -0.91724     0.76539
H      1.93786     0.00118     0.43797
O      3.41229    -1.17743     0.43878
H      3.29239    -1.77044    -0.31298
O     -0.79367    -2.19950     0.21198
H     -0.45536    -1.64874     0.94172
O     -0.41226    -1.46791    -0.94197
H     -0.70258    -0.54558    -0.76867
O     -1.23855     1.08212    -1.03643
H     -0.46101     1.35999    -1.56192
O     -2.31084     1.03640    -1.97666
H     -2.78780     0.27172    -1.62610
O     -1.26111     2.20798     1.52821
H     -1.77085     1.99334     0.73203
O     -0.20102     2.95767     0.93526
H     -0.20356     3.75777     1.46955
O      1.73742     1.51967    -0.26068
H      1.03550     2.06763     0.13863
O      1.31518     1.41494    -1.62475
H      1.74539     0.57835    -1.89650
O      1.99895    -2.05389    -1.94745
H      1.12208    -1.87338    -1.54865
O      2.22579    -0.85583    -2.68491
H      1.98388    -1.11111    -3.58101
O     -0.34726    -0.21757     2.43564
H     -0.69649     0.66949     2.24910
O      0.81961     0.06958     3.20825
H      1.48354    -0.41029     2.69628
O     -3.03650    -0.26941     1.01609
H     -3.58829    -0.60101     1.73365
O     -3.27843    -1.22768    -0.02452
H     -2.47945    -1.79220     0.05208
