 32
-1213.3021099659109
O      2.22837     0.53059     1.06858
H      2.47018     0.39364     0.13109
O      1.46196     1.73664     1.00378
H      0.59239     1.43583     1.31432
O     -1.54660    -0.34950    -1.09326
H     -1.33456     0.60242    -1.16758
O     -0.30243    -0.84852    -0.58428
H     -0.31500    -0.58215     0.36560
O      0.16804     3.07514    -1.33265
H      0.82871     2.55080    -0.85343
O     -0.45660     2.12570    -2.18948
H      0.29030     1.64494    -2.58571
O     -1.35702     1.84683     0.63891
H     -1.25074     2.72407     0.24899
O     -2.13223     2.11330     1.81675
H     -2.71392     1.34358     1.77399
O      1.52181     0.14101    -2.22438
H      0.88993    -0.27732    -1.60209
O      2.76042    -0.01088    -1.51569
H      2.92050    -0.96483    -1.59248
O      2.26251    -2.87428    -1.04209
H      2.52941    -3.79391    -0.94244
O      1.17291    -2.98836    -1.96491
H      0.47090    -2.59562    -1.42869
O     -0.45557    -0.36860     1.99218
H     -1.24870    -0.89104     2.23038
O      0.61153    -1.32031     2.11508
H      1.36160    -0.73839     1.87463
O     -3.16011    -0.58435     1.05812
H     -2.63000    -0.65448     0.23935
O     -2.70755    -1.71777     1.79440
H     -3.53005    -2.04972     2.16355
