 36
-1364.9745479005635
O      3.28284    -0.66702    -0.52566
H      3.06999    -1.57954    -0.81230
O      3.58353    -0.00258    -1.75732
H      2.70466     0.29917    -2.02661
O     -3.99310    -1.73932     0.79281
H     -4.87532    -1.35955     0.82389
O     -3.21254    -0.57112     0.57283
H     -2.53022    -0.63750     1.27769
O      1.44732    -2.85315     0.13480
H      0.60202    -2.43704    -0.16726
O      2.12777    -3.01688    -1.10635
H      2.38908    -3.93899    -1.04989
O     -0.60386    -1.32436    -0.50588
H     -0.14739    -0.57400    -0.97034
O     -1.52013    -1.80595    -1.49405
H     -2.33272    -1.73337    -0.98229
O      0.76067     0.67874    -1.60121
H      0.92183     1.44116    -0.99392
O      0.09578     1.36588    -2.66681
H     -0.80174     1.36525    -2.29098
O     -2.12368     1.26659    -1.09477
H     -2.65214     0.61907    -0.59271
O     -2.07088     2.36889    -0.19357
H     -1.75369     1.94653     0.61589
O     -1.26708     1.12398     2.52942
H     -1.19257     1.24355     3.48292
O     -1.19750    -0.29297     2.36928
H     -0.23391    -0.44939     2.27637
O      0.80681     2.87812    -0.16962
H     -0.06481     3.25409    -0.36102
O      0.83740     2.91573     1.26152
H      1.12073     2.00139     1.43255
O      1.53528    -0.78152     2.09929
H      1.59665    -1.52469     1.47884
O      1.58984     0.33834     1.22154
H      2.28460     0.08558     0.56396
