 36
-1364.979477488415
O      2.34839     3.54399     0.31125
H      3.21010     3.96974     0.33220
O      2.68883     2.30635    -0.30066
H      2.45271     1.66892     0.41615
O     -0.19829     2.32258    -1.80848
H     -0.94328     1.77601    -2.11707
O      0.89747     1.45727    -2.15211
H      1.59739     1.84249    -1.58647
O     -1.44666    -0.07711     2.92468
H     -1.16197    -0.89954     2.48396
O     -0.58159    -0.04769     4.05967
H      0.19200     0.39319     3.66478
O     -1.97898    -0.22294    -0.93807
H     -1.97307     0.56110    -0.34080
O     -1.99578     0.38867    -2.23110
H     -1.48153    -0.26475    -2.72470
O     -0.50028     2.39355     0.87987
H     -0.33753     2.46085    -0.08405
O     -1.71302     1.63991     0.92452
H     -1.61441     1.13696     1.76725
O     -0.48524    -2.04239     1.31657
H     -0.50335    -2.89876     0.84372
O      0.16244    -1.25095     0.30668
H     -0.60787    -0.94665    -0.22842
O      1.05207    -2.43753    -2.34089
H      1.45181    -2.74345    -3.16223
O      0.26893    -1.33855    -2.79087
H      0.72161    -0.60122    -2.34719
O      1.20544     1.19039     2.48739
H      0.64286     1.80648     1.98080
O      1.82747     0.49479     1.40925
H      1.15548    -0.14539     1.08279
O     -1.70547    -4.13760    -1.01251
H     -1.83585    -5.08422    -0.90710
O     -0.37884    -3.99132    -0.52286
H      0.05139    -3.51478    -1.25149
