 40
-1516.6430931288644
O     -0.20649     2.95636    -1.40623
H      0.64198     3.09426    -0.94027
O     -0.99852     2.60935    -0.25482
H     -1.77390     2.17718    -0.67589
O      1.47371    -2.94745    -0.93042
H      1.54365    -2.53212    -0.03595
O      2.59116    -2.38193    -1.61451
H      3.22770    -3.10064    -1.57327
O      0.10995     0.76973    -2.98932
H     -0.12708     1.61691    -2.55811
O     -1.16108     0.16873    -3.23274
H     -0.99689    -0.74357    -2.91109
O     -0.85444     0.15839     1.66491
H     -0.66140     0.19988     2.62332
O     -1.87355    -0.82943     1.61260
H     -1.49132    -1.46193     0.98337
O     -1.70473    -2.34834    -0.96073
H     -2.41641    -1.73099    -1.18795
O     -0.88103    -2.23994    -2.12373
H     -0.01147    -2.51615    -1.77274
O      1.22381    -0.01052    -0.71867
H      0.85297     0.19199    -1.61012
O      2.62612     0.17041    -0.88721
H      2.83023    -0.75023    -1.12715
O      0.90217     2.63270     1.59843
H      0.00661     2.62243     1.20695
O      1.69079     2.77123     0.41260
H      1.91287     1.85188     0.19681
O     -3.25772     0.05787    -0.81589
H     -2.83066     0.19774     0.04355
O     -2.90792     1.24638    -1.52677
H     -2.39824     0.86717    -2.27350
O      0.56243    -2.36229     2.36923
H      0.61675    -1.77046     3.13290
O      1.41394    -1.71944     1.43114
H      0.91059    -0.93047     1.14862
O      1.32306     0.99126     4.01771
H      1.15907     1.57270     3.25446
O      0.05681     0.35670     4.14789
H     -0.29827     0.71846     4.96681
