 32
-1213.3115810690056
O      1.70063     1.58466     1.34969
H      2.25587     0.86757     1.69841
O      0.62505     1.60704     2.29545
H     -0.05001     2.10460     1.79390
O     -1.95625    -2.77267    -0.94622
H     -2.76803    -2.84543    -1.45586
O     -1.01149    -2.32166    -1.91457
H     -1.27927    -1.36712    -2.01396
O     -1.49550     1.04213    -2.95357
H     -0.56737     1.21563    -2.70146
O     -1.89269     0.10664    -1.95057
H     -2.07677     0.68635    -1.18165
O     -0.81409    -0.96661     0.57893
H     -1.43965    -1.66763     0.29224
O     -1.22860    -0.60577     1.89342
H     -0.39192    -0.23501     2.22132
O      0.73191     2.31103    -1.01598
H      1.31640     2.04391    -0.27815
O      1.04736     1.38646    -2.05807
H      1.26014     0.56008    -1.57247
O      1.57324    -2.15653    -0.88955
H      0.72775    -2.27313    -1.35636
O      1.52115    -0.77224    -0.55303
H      0.68333    -0.75548    -0.03443
O      1.88374    -1.48454     2.85586
H      2.43768    -2.04860     3.40353
O      2.84588    -0.88795     1.98742
H      2.63394    -1.30353     1.13787
O     -2.17685     1.43895     0.38369
H     -1.97325     0.82331     1.10804
O     -1.33129     2.55838     0.67928
H     -0.79928     2.61197    -0.13627
