 20
-758.3077686271241
O     -0.23468    -1.17963     2.06384
H     -0.41026    -0.21877     1.95941
O     -1.41211    -1.75908     1.50498
H     -1.96799    -1.89845     2.27967
O      1.33326    -1.47043    -0.23535
H      1.11976    -1.85972     0.62772
O      2.33578    -0.50088     0.06065
H      1.91639     0.04024     0.74624
O     -0.68250     1.40722     1.43990
H     -1.02723     1.25823     0.54283
O      0.70227     1.69363     1.24604
H      0.75881     1.92166     0.29490
O      0.26488     1.60122    -2.60556
H     -0.48397     1.03304    -2.36762
O      0.99793     1.64698    -1.37770
H      1.63651     0.92026    -1.46178
O     -1.17135    -0.85454    -1.71067
H     -0.32008    -1.07085    -1.29742
O     -1.86910    -0.22104    -0.63649
H     -1.81727    -0.88983     0.07436
