 28
-1061.636668693736
O     -0.90948     2.04071     1.17013
H      0.01712     2.13236     0.89455
O     -1.14588     0.68343     0.82542
H     -0.50776     0.17479     1.35985
O      2.79568     2.06259    -0.53610
H      2.28391     2.31239    -1.31913
O      1.82040     1.37099     0.23242
H      1.64639     0.54588    -0.26510
O      1.20522    -2.39566     1.31245
H      1.56931    -1.89049     2.04995
O      0.82436    -1.29967     0.47202
H     -1.86177    -1.26655    -2.09811
O     -0.21504     1.37001    -2.05461
H     -0.65834     1.19300    -1.21300
O      0.74218     0.30008    -2.10321
H      0.18936    -0.46347    -2.35360
O     -3.39133    -0.43878    -0.18091
H     -2.67026    -0.00413     0.30819
O     -3.00129    -0.13164    -1.52097
H     -3.65320     0.52009    -1.79770
O     -0.84455    -2.55080    -1.20503
H     -0.70191    -3.42581    -1.58075
O     -1.05120    -1.74480    -2.36474
H      0.17154    -1.70996    -0.12607
O      0.86935     0.54918     3.11610
H      1.04345     1.12307     3.87304
O      2.15998     0.00416     2.83106
H      2.36446     0.46339     2.00131
