 32
-1213.30803296084
O      2.70501     0.67342     1.16669
H      3.33707     0.97025     1.82782
O      2.33620     1.89514     0.53650
H      1.36908     1.89208     0.71877
O     -1.55190    -1.82869    -0.06882
H     -1.04355    -2.11579     0.70039
O     -0.49775    -1.35397    -0.90587
H     -0.91833    -0.64303    -1.43357
O     -1.41502     0.87249    -2.25601
H     -0.48459     1.15769    -2.32809
O     -1.87151     1.78544    -1.25305
H     -2.75288     1.41446    -1.02869
O     -0.27412     1.72581     0.86313
H     -0.83348     1.74758     0.05185
O     -0.76452     0.56106     1.53011
H      0.04021     0.03926     1.65519
O      1.20749     1.12850    -1.97234
H      2.00014     1.45694    -1.51967
O      1.66567     0.02671    -2.75899
H      2.03504    -0.55961    -2.07116
O      1.85827    -2.23781    -0.14735
H      1.00831    -1.94882    -0.55064
O      2.75683    -1.25710    -0.65297
H      2.74006    -0.57851     0.04819
O      0.01726    -2.44241     2.42116
H      0.25152    -3.11820     3.06421
O      1.19125    -1.62840     2.37892
H      1.60528    -1.94772     1.54704
O     -3.56698     1.19041     1.03484
H     -2.81324     0.60529     1.18634
O     -4.03453     0.65688    -0.20345
H     -4.97897     0.82619    -0.14284
