 32
-1213.318334561365
O      2.75576     0.58985     3.23818
H      3.05915     0.45135     4.14096
O      1.69065    -0.35193     3.16286
H      0.90279     0.23156     3.09078
O      0.10226    -0.78437    -2.48252
H      0.99968    -0.66408    -2.12514
O     -0.28166    -1.99008    -1.79516
H     -1.25058    -1.91188    -1.92041
O     -0.43540     1.09617     2.37897
H     -0.07559     1.54352     1.57976
O     -1.28136     0.11478     1.78334
H     -0.63498    -0.55238     1.47240
O     -0.08085     1.80202    -1.03430
H     -0.99336     1.89807    -0.69831
O      0.69437     1.89688     0.16088
H      1.44502     1.31523    -0.05216
O      2.82350     0.44429    -0.61045
H      3.64032     0.72109    -1.03297
O      2.53262    -0.76827    -1.29636
H      2.44939    -1.36616    -0.52638
O     -2.76544     1.89777    -0.59719
H     -2.91099     1.71328    -1.53696
O     -3.12796     0.61950    -0.06097
H     -2.48590     0.52893     0.67510
O      0.32746    -1.78087     0.80694
H      0.19126    -1.91853    -0.15996
O      1.74556    -1.90388     0.95442
H      1.87784    -1.37933     1.76900
O     -2.69241    -0.94631    -2.14417
H     -2.98153    -0.58753    -1.28235
O     -2.32703     0.29092    -2.78274
H     -1.35989     0.18384    -2.80303
