 36
-1364.9801224386297
O      1.25677     2.77905     0.10273
H      1.11027     1.95924    -0.41558
O      2.30058     2.36549     0.99029
H      1.77868     2.11980     1.77653
O     -1.40840    -2.12522     0.26550
H     -1.19261    -2.26491    -0.68729
O     -1.21022    -0.70933     0.35610
H     -0.67518    -0.61647     1.17669
O      0.49203     1.28530     2.64182
H     -0.35737     1.56912     2.27880
O      0.48558    -0.09977     2.30231
H      1.39618    -0.25658     1.97046
O      2.77333    -0.73430     1.06012
H      2.50987    -1.55546     0.59508
O      3.23248     0.08050    -0.02774
H      3.07161     0.97883     0.33278
O     -1.44461     2.21512     0.64470
H     -0.74259     2.85106     0.43006
O     -2.57504     3.03990     0.95972
H     -3.24247     2.57790     0.42893
O     -2.54304     0.80924    -1.69046
H     -1.91145     1.44174    -1.30979
O     -3.55751     0.72941    -0.68892
H     -3.16833     0.08620    -0.07692
O      1.29826    -0.33718    -1.83221
H      2.12346    -0.26139    -1.30307
O      0.47887     0.62650    -1.16591
H     -0.10873     0.04888    -0.62274
O     -1.67811    -1.77689    -3.09381
H     -2.05843    -1.07803    -2.54002
O     -0.64834    -2.27992    -2.25535
H      0.09125    -1.65735    -2.39578
O      1.58918    -2.81126    -0.10756
H      1.81306    -3.70326    -0.39690
O      0.97331    -3.03862     1.16065
H      0.03911    -2.84776     0.94063
