 36
-1364.9752246021737
O      2.33400     1.69256    -0.38653
H      1.57832     2.30620    -0.28733
O      2.18940     1.28414    -1.74844
H      2.43289     0.34640    -1.68589
O     -1.43237     0.79848     3.15042
H     -0.57987     0.48439     2.81507
O     -2.33325     0.08854     2.31340
H     -2.56077     0.72652     1.62101
O     -1.23621    -1.09388    -0.25771
H     -0.42045    -0.56844    -0.09286
O     -1.27267    -1.87653     0.93216
H     -1.66092    -1.22788     1.56512
O      0.04099     3.11944    -0.15183
H     -0.44966     2.86511    -0.96962
O     -0.83893     2.60937     0.84808
H     -0.92242     3.36396     1.43747
O     -1.11483     2.06181    -2.28033
H     -1.98863     1.68363    -2.07236
O     -0.36194     0.87682    -2.54065
H      0.54438     1.19599    -2.38681
O     -3.52312     1.07200    -1.56572
H     -4.22137     0.63773    -2.06531
O     -3.47465     0.31703    -0.36055
H     -2.68221    -0.24633    -0.50173
O      1.02715    -0.34679     0.73086
H      1.69897     0.33380     0.50021
O      1.15348    -0.48495     2.15427
H      1.22875    -1.45365     2.18249
O      2.50420    -1.68926    -1.51299
H      1.84791    -2.20993    -0.99890
O      3.70781    -2.00363    -0.80180
H      4.13363    -2.60765    -1.41642
O      0.97778    -3.10168     0.23897
H      0.12392    -2.72066     0.53658
O      1.76186    -3.03492     1.43850
H      2.61570    -2.76366     1.07671
