 32
-1213.3163585515042
O      1.64566    -1.60969     0.36548
H      0.70305    -1.49188     0.61063
O      1.55564    -2.53405    -0.71436
H      1.34171    -1.91794    -1.44663
O     -0.84060    -1.06461     0.97014
H     -1.18134    -0.19755     0.61826
O     -2.02080    -1.76418     1.34562
H     -1.91791    -2.54969     0.79359
O     -1.76111     1.59956    -1.26068
H     -1.47827     0.74483    -1.63636
O     -1.74379     1.27847     0.13346
H     -1.49376     2.14059     0.51350
O      0.68867     3.62935     0.73491
H      0.93861     3.37421     1.63678
O     -0.73153     3.69444     0.85670
H     -0.91572     4.60704     0.60795
O      1.37278     1.46332    -0.82816
H      1.01996     2.26238    -0.39467
O      2.28945     0.99598     0.16913
H      2.16298     0.02506     0.11451
O     -0.78290    -0.73522    -2.17892
H     -0.91817    -1.66895    -1.92805
O      0.63350    -0.63652    -2.28814
H      0.81430     0.20552    -1.82159
O      1.37454     1.53400     2.67768
H      1.70526     1.27441     1.79607
O     -0.03181     1.29104     2.58315
H     -0.12374     0.33788     2.72519
O     -1.24752    -3.31440    -1.66958
H     -1.09656    -4.06705    -2.24962
O     -0.79961    -3.78438    -0.39935
H      0.12282    -3.44666    -0.40288
