 32
-1213.3148352195205
O      1.51262    -2.21715     1.53240
H      2.13439    -1.72339     0.96513
O      0.44504    -1.27111     1.53669
H     -0.27077    -1.74780     1.98095
O     -0.22404    -1.91046    -0.91088
H      0.07381    -1.56016    -0.03985
O      0.03907    -0.80992    -1.80028
H     -0.86312    -0.44460    -1.88584
O     -3.06608    -0.67608     2.66585
H     -3.32924    -1.05790     3.50763
O     -2.32077    -1.74721     2.09226
H     -2.65137    -1.71634     1.17628
O     -2.03891     1.51033     0.43168
H     -1.29929     1.93216    -0.04160
O     -1.27476     0.93962     1.50329
H     -1.95599     0.45399     1.99750
O      2.74812    -0.36694     0.00928
H      2.25209     0.42129     0.30774
O      2.64793    -0.27002    -1.41255
H      1.71618    -0.52997    -1.57347
O      2.43238     3.04089    -1.80987
H      3.27129     3.46757    -1.61263
O      2.78996     2.06112    -2.78295
H      2.81251     1.24797    -2.23915
O      1.17535     1.66450     0.79917
H      0.44477     1.29331     1.32429
O      0.43094     2.10876    -0.34742
H      1.16045     2.46641    -0.89980
O     -2.80889    -1.64378    -0.61795
H     -1.96974    -2.09908    -0.82543
O     -2.56829    -0.43662    -1.35278
H     -2.55865     0.24013    -0.65050
