 36
-1364.9772443069523
O      1.94033     2.67761     0.79714
H      1.85942     1.73586     1.07044
O      3.35755     2.84681     0.76864
H      3.45909     3.58628     1.37404
O     -0.21426     2.67788    -1.58315
H     -0.63595     1.91463    -2.00139
O      1.17485     2.37935    -1.77844
H      1.53087     2.64702    -0.90634
O     -1.24073    -2.57286     2.76364
H     -1.69590    -2.76231     3.58934
O      0.06738    -2.21772     3.20551
H      0.10217    -1.27940     2.92682
O     -2.06123     0.32216    -2.28639
H     -2.81787     0.71199    -2.73681
O     -1.56993    -0.60902    -3.25434
H     -0.64330    -0.67096    -2.93575
O     -1.06255     2.13623     0.89485
H     -0.71857     2.54680     0.07691
O     -2.36307     1.72263     0.46107
H     -2.31579     0.76485     0.64062
O     -2.13308    -0.92258     0.84774
H     -1.78353    -1.56862     1.49264
O     -1.68555    -1.49304    -0.38530
H     -1.95592    -0.82149    -1.04747
O      1.61153    -1.42408    -2.51602
H      1.55072    -2.14528    -1.87341
O      0.70034    -0.49463    -1.92347
H      1.25074     0.28641    -1.73684
O      0.26725     0.22186     2.13500
H     -0.27879     0.94222     1.73395
O      1.30192     0.12756     1.14759
H      1.29037    -0.82737     0.90836
O      1.39342    -2.51128     0.71309
H      1.09429    -2.93157     1.53429
O      0.49334    -3.03738    -0.26220
H     -0.23925    -2.38661    -0.28172
