 32
-1213.3084191592336
O      1.52823     1.43789     2.03021
H      1.93189     0.57723     1.82238
O      1.86851     2.21975     0.88033
H      0.97117     2.45061     0.57069
O     -1.42681    -1.95881    -0.30228
H     -2.23482    -1.51183     0.01974
O     -1.08624    -2.81861     0.78039
H     -0.30007    -2.37547     1.12590
O     -1.19479     0.99810    -1.91154
H     -0.66731     0.20239    -2.12448
O     -2.52744     0.51832    -2.09122
H     -2.96931     0.89375    -1.31835
O     -0.73862     2.14464     0.42953
H     -0.92503     1.69467    -0.42850
O     -1.00620     1.08116     1.35157
H     -0.19216     1.10824     1.89411
O      3.47420     0.75759    -0.74791
H      2.92534     1.36256    -0.21243
O      2.86043     0.91843    -2.02590
H      3.61687     1.11884    -2.58511
O      1.31911    -1.10785    -1.17796
H      1.94338    -0.51644    -1.64393
O      0.28966    -1.29759    -2.15132
H     -0.34084    -1.81012    -1.60605
O      2.11869    -1.10568     1.35123
H      1.75424    -1.19855     0.44035
O      1.26686    -1.97147     2.08954
H      1.84824    -2.71841     2.25922
O     -3.61001    -0.76725     0.70185
H     -4.09279    -0.92806     1.51937
O     -3.53229     0.65419     0.62339
H     -2.63265     0.80864     0.98318
