 40
-1516.6501152953563
O     -1.66614     1.68878     0.74291
H     -2.47349     1.23387     0.43485
O     -0.94197     1.82698    -0.48410
H     -0.29587     1.08648    -0.45544
O      2.06754    -0.80839     2.74430
H      1.41771    -0.08413     2.68685
O      2.80724    -0.64714     1.52845
H      2.81364    -1.58105     1.24622
O     -3.48807     0.18348    -1.77477
H     -4.38589    -0.00995    -2.05925
O     -3.60833     0.06371    -0.35716
H     -3.13352    -0.78642    -0.18553
O     -0.18083     0.56709    -3.88662
H      0.52586     0.76899    -3.25536
O     -0.95205    -0.36154    -3.14299
H     -1.62351     0.17292    -2.68898
O      0.75023     2.33069     2.77321
H      0.18838     2.78816     3.40750
O      0.11237     1.06927     2.62877
H     -0.55918     1.25154     1.91979
O      1.15006     0.20383    -0.47312
H      1.80896     0.11476     0.25667
O      1.76877     1.06401    -1.42522
H      1.79907     1.89528    -0.87388
O      0.73810     3.86268    -0.12462
H     -0.00253     3.26061    -0.33913
O      1.69787     2.92631     0.35667
H      1.37351     2.74336     1.26008
O     -2.06650    -2.01151     0.17153
H     -1.42912    -2.27784    -0.53032
O     -1.24996    -1.17910     1.00583
H     -0.61757    -1.82974     1.37469
O      1.83056    -3.04687     0.99752
H      1.42432    -2.96967     0.10972
O      0.71772    -2.88340     1.88003
H      1.13896    -2.29759     2.53609
O     -0.33281    -2.53236    -1.79218
H     -0.51144    -1.81241    -2.43752
O      1.04393    -2.32303    -1.46673
H      1.08847    -1.36370    -1.28364
