 20
-758.303416885266
O      0.20763    -2.28277    -0.13689
H      0.59775    -1.74657    -0.84871
O      1.14624    -3.35130    -0.00476
H      0.62435    -4.09361    -0.32263
O      0.06769    -0.56139     2.00905
H      0.09127    -1.29389     1.36548
O      1.37109    -0.00933     1.81705
H      1.73777    -0.08927     2.70261
O      0.48725     2.18484    -0.60207
H     -0.45091     2.10729    -0.35165
O      1.09374     2.47687     0.65786
H      1.15950     1.59316     1.05279
O     -0.65333    -0.07792    -2.41290
H     -0.61910     0.52192    -3.16236
O      0.71688    -0.11884    -1.99385
H      0.78424     0.70609    -1.45971
O     -2.48465     0.42213     0.88342
H     -1.69816     0.34690     1.44166
O     -1.97854     1.18610    -0.21394
H     -1.84026     0.51045    -0.89524
