 32
-1213.3077520859401
O      2.02417     0.27204    -1.11576
H      2.63634    -0.49245    -1.15712
O      2.29689     0.78570     0.19867
H      1.93444     1.68522     0.08580
O     -1.07746    -2.35918    -0.54778
H     -1.36796    -2.24047     0.38060
O      0.29273    -1.96170    -0.46305
H      0.23398    -1.01120    -0.67293
O     -2.31463    -0.28369    -1.76058
H     -2.01432    -1.19221    -1.59130
O     -1.31453     0.38764    -0.99315
H     -0.92541     1.03165    -1.61255
O      0.51804    -0.14920     2.05469
H      1.23654     0.10053     1.43939
O      0.21132     1.07764     2.71184
H     -0.71782     1.19250     2.47215
O      0.40972     2.34892    -1.95830
H      1.11981     1.70894    -2.09826
O      0.78362     2.79256    -0.64867
H     -0.08025     2.81563    -0.18984
O      2.37324    -2.61061    -2.01306
H      1.61596    -2.55839    -1.39997
O      3.39154    -2.00521    -1.20684
H      4.19007    -2.36562    -1.60401
O     -1.53753    -1.85171     2.07227
H     -0.76988    -1.26120     2.23001
O     -2.61245    -0.94713     2.32079
H     -3.12522    -1.45556     2.95589
O     -2.11633     1.79135     1.11692
H     -1.88380     1.13993     0.41909
O     -1.57000     2.99195     0.57094
H     -2.35587     3.46871     0.28296
