 16
-606.6420999135315
O     -0.69531    -1.35946     1.32252
H     -1.22164    -1.16364     0.53185
O     -1.47618    -0.77337     2.37152
H     -1.10745     0.12230     2.38374
O      0.10526     1.39770     1.20102
H     -0.40786     1.24949     0.38615
O      1.19268     0.47690     1.04428
H      0.71575    -0.36191     1.22098
O      1.92823    -1.03505    -1.74818
H      2.72123    -0.88051    -2.27103
O      1.41753     0.29197    -1.62551
H      1.55573     0.47051    -0.66788
O     -1.24312    -0.26269    -1.39351
H     -0.28403    -0.19573    -1.58022
O     -1.52073     1.06439    -0.93248
H     -1.67891     1.54653    -1.75122
