 32
-1213.3182172575996
O      2.69718    -0.64406     1.46990
H      2.14949    -1.33889     1.07530
O      1.91352    -0.29262     2.60611
H      2.44681    -0.58818     3.35111
O      0.78394    -0.86574    -3.49089
H      0.66772    -0.94749    -4.44184
O      0.14757    -2.03753    -2.99276
H     -0.73481    -1.66609    -2.74979
O     -1.95663    -0.85894    -1.97638
H     -2.20558    -0.11163    -1.37944
O     -2.16105    -1.98180    -1.11635
H     -1.36813    -1.91399    -0.55373
O     -0.97814     0.39849     3.48700
H     -0.43330     1.19757     3.45255
O     -1.19571     0.19792     2.09379
H     -0.60342    -0.54365     1.87620
O      1.20518     0.77717    -0.77237
H      1.12838     1.54043    -0.14766
O      0.27288     1.12169    -1.80277
H      0.42412     0.38384    -2.43078
O      0.15109    -1.46666     0.08978
H      0.49209    -0.60415    -0.24998
O      1.10646    -2.38746    -0.43103
H      0.84388    -2.39104    -1.37161
O      1.00963     2.23591     2.39693
H      1.46188     1.38273     2.27150
O      0.77454     2.64380     1.04717
H     -0.19461     2.68221     1.00644
O     -1.69271     2.22417    -0.39609
H     -1.03480     1.90394    -1.04273
O     -2.38864     1.00191    -0.15163
H     -2.04105     0.73173     0.71843
