 36
-1364.9764064229125
O      0.99436     1.87044    -2.17867
H      1.35573     1.94824    -1.26601
O      1.97021     1.04226    -2.81487
H      1.91794     0.23846    -2.27754
O      0.14383    -2.65108     2.20495
H     -0.74854    -2.70484     1.82489
O      0.42386    -1.27152     1.95979
H      1.39985    -1.23689     1.98385
O     -1.88157    -2.31484    -0.47758
H     -2.31777    -1.54751    -0.87932
O     -2.38720    -2.36454     0.86211
H     -2.46550    -1.41247     1.09322
O     -1.69586     0.22099     2.52183
H     -0.86684    -0.27198     2.33428
O     -2.27306     0.27661     1.20692
H     -2.56793     1.19860     1.15752
O     -1.46215     2.75178    -0.80251
H     -0.61897     3.10397    -1.12371
O     -1.41165     2.96188     0.61235
H     -0.60719     2.46081     0.87179
O     -1.63172     0.28495    -1.76913
H     -1.78831     1.15477    -1.33341
O     -1.61137     0.64993    -3.14169
H     -0.77780     1.14614    -3.17001
O      1.89222     1.82338     0.29291
H      2.48598     1.06512     0.42822
O      0.70101     1.38906     0.93960
H      0.54768     0.51405     0.50725
O      3.05882    -1.10665     1.74519
H      3.84630    -1.58829     2.01562
O      3.22709    -0.94361     0.34188
H      2.59586    -1.59763    -0.00224
O      0.73083    -2.01519    -0.76284
H     -0.18041    -2.26571    -0.49398
O      0.61365    -0.58722    -0.71891
H     -0.17654    -0.39167    -1.28291
