 36
-1364.9795891327883
O      1.10196     2.88627    -0.94815
H      0.80277     2.61893    -1.84615
O      1.13569     1.59086    -0.34595
H      1.41737     1.81093     0.57083
O     -0.95172    -2.46234     0.01816
H     -0.34427    -2.99728    -0.52185
O     -1.27508    -1.39135    -0.88398
H     -1.49655    -0.68073    -0.25501
O      0.52744    -0.80014     2.61184
H      0.76170     0.02504     3.06157
O      1.34901    -0.69902     1.44055
H      1.41650    -1.62566     1.16201
O      1.86482    -0.67111    -1.59288
H      1.69591     0.18309    -1.14573
O      0.75858    -0.76038    -2.49543
H      0.02090    -1.05381    -1.91127
O      1.38477     2.48975     2.12940
H      1.50584     3.40522     2.40303
O      0.26950     2.06545     2.90751
H     -0.46511     2.12505     2.25999
O     -1.51326     1.58147    -0.12945
H     -0.53354     1.59994    -0.13514
O     -1.83756     1.95006     1.21844
H     -2.22633     1.11040     1.53130
O     -1.21712     1.72588    -3.15560
H     -1.41387     1.88282    -2.22097
O      0.20594     1.75834    -3.16569
H      0.44287     0.80644    -3.10037
O     -2.01069    -0.60719     1.77149
H     -1.12826    -0.78685     2.16082
O     -2.75388    -1.77788     2.08163
H     -2.50779    -2.33206     1.32929
O      1.03457    -3.84485    -1.16106
H      1.37160    -4.71296    -0.92760
O      1.84532    -3.00556    -0.34511
H      1.94864    -2.23928    -0.94920
