 32
-1213.3168785908485
O      0.42315    -1.97445     1.46907
H      0.19225    -1.23329     2.06490
O      1.16241    -1.24389     0.48464
H      0.60119    -1.29755    -0.31441
O     -0.94687    -0.46006    -2.34415
H     -0.17092    -0.05533    -2.76291
O     -0.35193    -1.61031    -1.74617
H     -1.12333    -2.07197    -1.37999
O     -2.73775    -1.90730     1.17519
H     -2.96907    -1.22270     0.52140
O     -1.89197    -2.74147     0.37631
H     -1.03793    -2.63375     0.84138
O     -0.34247     0.32781     2.55518
H     -0.06099     1.02331     1.92176
O     -1.76718     0.42534     2.53196
H     -2.03050    -0.50565     2.45011
O      1.43181     1.06383    -2.80807
H      1.17530     1.49640    -1.96856
O      2.72921     0.57939    -2.50173
H      3.27430     1.10963    -3.08862
O      3.41777     0.56724     1.20735
H      2.67375    -0.04985     1.17638
O      3.11654     1.43826     0.12651
H      3.14640     0.87195    -0.66242
O      0.16188     1.88949    -0.63784
H     -0.79389     1.71979    -0.48411
O      0.63153     2.01800     0.71323
H      1.60526     1.92242     0.56688
O     -2.86196     0.12373    -0.55182
H     -2.23737     0.01239    -1.29343
O     -2.33525     1.30517     0.05638
H     -2.27461     1.03838     0.99514
