 32
-1213.31368500318
O      2.48305    -1.11589    -0.59593
H      2.63341    -0.21019    -0.24397
O      2.17763    -1.84077     0.58928
H      2.97178    -2.37183     0.69786
O     -0.26703    -3.01052     0.33362
H      0.61856    -2.61674     0.41428
O     -1.06367    -1.83949     0.18717
H     -0.84139    -1.55121    -0.72929
O     -0.06718    -0.82686    -2.02337
H      0.88119    -0.91936    -1.84038
O     -0.22927     0.59151    -2.00399
H     -1.03786     0.70253    -1.45814
O     -3.53096    -0.49358     2.74058
H     -2.66632    -0.13357     2.99825
O     -3.34077    -0.59990     1.33227
H     -2.78599    -1.38759     1.24668
O      2.74182     0.60099    -3.18935
H      2.93402     0.96020    -4.06158
O      2.13388     1.72880    -2.56062
H      1.23030     1.38454    -2.41578
O      1.24909     1.75376     0.38070
H      0.98271     1.02713     0.98266
O      2.64221     1.47148     0.17193
H      2.75845     1.87131    -0.70399
O      0.06191    -0.10537     1.85924
H     -0.41895    -0.77461     1.32024
O     -0.98497     0.52667     2.60662
H     -1.24089     1.22645     1.97686
O     -2.20580     1.16318    -0.32797
H     -2.72661     0.60278     0.28248
O     -1.65555     2.13100     0.56458
H     -0.76524     2.24927     0.20083
