 36
-1364.9714571741856
O      1.00845     0.78917     2.92794
H      0.80387     0.76794     1.96510
O      1.18228    -0.59896     3.21867
H      2.13616    -0.66153     3.33028
O     -2.55165     0.08763     0.87974
H     -2.76258    -0.76422     0.47855
O     -1.82367    -0.35242     2.03583
H     -1.89899     0.43432     2.61235
O     -0.97135     1.79457     4.51652
H     -0.24356     1.46523     3.96097
O     -1.99765     1.87621     3.51720
H     -2.77178     2.07407     4.05228
O      2.41592    -1.17932    -1.73788
H      2.17003    -0.29650    -1.39253
O      1.60352    -1.27548    -2.90974
H      0.72665    -1.46852    -2.52850
O     -1.72461     0.91700    -1.69588
H     -1.91204     1.11213    -0.76325
O     -0.67286     1.84685    -1.97328
H     -0.50384     1.68633    -2.92328
O      1.46905     1.07041    -0.60564
H      0.89177     1.58254    -1.19986
O      0.46663     0.64104     0.32372
H      0.31340    -0.29645     0.09087
O     -1.58384    -2.12175    -0.56517
H     -0.97045    -2.33464     0.15784
O     -0.66307    -1.49397    -1.46487
H     -1.12602    -0.65027    -1.65126
O      1.53838     1.20020    -3.85073
H      1.68956     0.25453    -3.62416
O      0.21164     1.12457    -4.37459
H      0.33559     1.46181    -5.26587
O      0.50286    -2.12260     1.11829
H      0.57513    -1.62168     1.95210
O      1.86622    -2.45828     0.86237
H      1.96548    -2.17052    -0.05763
