 32
-1213.3056140484152
O      0.08518    -2.15734     1.53777
H     -0.01838    -2.34790     0.59367
O     -1.29040    -2.22105     1.95980
H     -1.37675    -1.36472     2.41185
O     -0.20839    -2.47933    -3.09822
H     -0.71218    -2.24084    -2.29047
O      1.05437    -2.81198    -2.49748
H      1.49554    -3.27192    -3.21749
O     -2.61134    -2.09513    -0.36300
H     -2.35847    -2.26140     0.56292
O     -1.34049    -1.64492    -0.84416
H     -1.40754    -0.67882    -0.68006
O     -1.70409     0.92829    -0.36573
H     -1.80797     1.15331     0.57914
O     -0.74016     1.88213    -0.81958
H     -0.14060     1.30938    -1.33310
O      1.47869     3.66340     0.01575
H      0.65580     3.16686    -0.14250
O      2.34667     3.07358    -0.95005
H      2.29797     3.69018    -1.68711
O      1.37733     0.53454    -1.83828
H      2.00119     1.14451    -1.42147
O      1.59544    -0.62757    -1.03475
H      1.42989    -1.34468    -1.68377
O     -2.10470     1.18331     2.28786
H     -2.50798     1.63759     3.03286
O     -1.17024     0.31806     2.93107
H     -0.34345     0.58062     2.47062
O      2.14337     1.40144     1.96165
H      2.12173     2.29209     1.58612
O      0.94761     0.86416     1.39101
H      1.26588     0.11738     0.85304
