 16
-606.6416696159778
O     -2.21529    -0.02043     0.58227
H     -3.08625     0.39075     0.60765
O     -1.39836     0.92438     1.26905
H     -0.85059     1.26182     0.54190
O      1.85712    -0.81640     0.77064
H      1.98210     0.01093     0.28059
O      1.28641    -0.38110     2.00557
H      0.33607    -0.44180     1.83102
O      1.25404     0.87818    -1.53060
H      0.62212     0.12762    -1.61395
O      0.38514     1.87482    -0.97982
H      0.30095     2.48756    -1.71516
O     -0.58204    -1.01374    -1.29329
H     -1.25661    -0.76266    -0.63650
O      0.01011    -2.14781    -0.65442
H      0.72736    -1.72176    -0.14604
