 24
-909.9779393872118
O     -2.19947    -0.04767     2.28383
H     -2.93545     0.31512     2.78353
O     -2.31784     0.67157     1.06193
H     -1.50378     1.22352     1.07478
O      0.37045    -0.65052    -2.07905
H     -0.60074    -0.61844    -1.97852
O      0.73624     0.67023    -1.67066
H      1.69387     0.55162    -1.48213
O     -0.00353     1.92097     0.53209
H      0.19163     1.57153    -0.36206
O      1.01366     1.27561     1.29747
H      0.73181     0.33759     1.25360
O     -2.28271    -2.13221    -0.86489
H     -3.00783    -2.41693    -1.42746
O     -2.17187    -0.76583    -1.25764
H     -2.27164    -0.30051    -0.40373
O      0.23973    -1.24647     1.17501
H     -0.65887    -1.54695     1.36235
O      0.70931    -2.18988     0.20950
H      0.60751    -1.70111    -0.62452
O      3.12195     1.88333    -0.25428
H      2.40002     1.72162     0.38920
O      3.23346     0.59707    -0.86579
H      3.94019     0.18048    -0.36253
