 32
-1213.3104911582661
O      2.83252     0.71504    -0.73132
H      2.37567     0.04725    -1.28469
O      2.72661     0.06647     0.54170
H      2.47663     0.80715     1.10668
O     -0.51386    -3.05486     0.78030
H      0.04984    -3.83199     0.79436
O      0.46408    -2.02239     0.71248
H      0.01558    -1.29981     1.20544
O      1.22386    -1.14968    -1.69436
H      0.91641    -1.52731    -0.84472
O      0.02584    -0.56227    -2.19217
H      0.03980     0.33504    -1.79106
O      1.19948     3.36409     1.92663
H      1.21340     3.22099     0.95876
O      1.90631     2.21446     2.38711
H      2.51521     2.60269     3.02390
O     -1.44599    -2.79952    -2.38878
H     -0.91284    -1.98146    -2.44461
O     -2.24231    -2.49399    -1.24395
H     -1.67727    -2.79903    -0.51418
O      0.02161     1.80179    -0.96433
H     -0.24674     1.58318    -0.04946
O      1.09405     2.71972    -0.72932
H      1.85970     2.11756    -0.85346
O     -0.56687     1.24514     1.54659
H     -0.08985     1.57648     2.32535
O     -0.93682    -0.08336     1.93246
H     -1.84567    -0.12048     1.56901
O     -2.52977     0.05923    -0.70672
H     -2.46243    -0.85527    -1.07998
O     -3.20936    -0.22348     0.52522
H     -4.01990     0.27872     0.41232
