 28
-1061.6344529681912
O      1.04473    -1.44987    -0.79436
H      0.54324    -0.87431    -1.41488
O      2.01825    -2.09524    -1.61108
H      2.79129    -1.55214    -1.40859
O      2.87402     0.89604    -0.65810
H      2.29700     0.87673     0.13374
O      3.96206     0.05839    -0.24519
H      4.69256     0.68270    -0.24138
O     -1.82337    -0.44035     2.51116
H     -0.86770    -0.48116     2.29043
O     -2.15149     0.89986     2.13286
H     -0.62901     1.04084    -2.23793
O     -1.14992    -2.87855     0.55564
H     -0.50188    -2.64193    -0.11972
O     -2.24318    -2.03365     0.17322
H     -2.53019    -1.71791     1.04338
O     -0.47666     2.81182    -1.39047
H     -0.08433     3.68479    -1.28066
O     -1.85722     3.06751    -1.06092
H     -2.04010     2.25672    -0.56561
O     -1.29740     0.28552    -0.69365
H     -1.70176    -0.59353    -0.51440
O     -0.74421     0.10702    -2.00564
H     -2.23771     1.32184     2.99336
O      0.95142     0.84670     1.25545
H      0.16983     0.98927     0.69512
O      0.76556    -0.51435     1.66284
H      0.92940    -0.98475     0.81772
