 24
-909.9779061290952
O     -2.37217     1.19810     0.17767
H     -2.32790     0.23773    -0.02812
O     -3.10074     1.20053     1.40505
H     -3.88425     1.69443     1.14626
O      1.00074    -1.24526    -1.35532
H      0.50960    -1.39002    -0.53004
O      0.19859    -0.26323    -2.01684
H      0.38858     0.54503    -1.50052
O      3.31973     0.00904    -0.77685
H      2.50242    -0.44864    -1.04972
O      2.95889     0.57940     0.47975
H      2.64809    -0.18839     0.99264
O     -2.15142    -1.39097    -0.31120
H     -2.72741    -2.14370    -0.14324
O     -2.30577    -1.19910    -1.72153
H     -1.39406    -0.92254    -1.94023
O      0.26752    -0.98499     1.42372
H      0.27082    -0.00332     1.34027
O      1.58215    -1.25924     1.91006
H      1.46320    -1.21894     2.86342
O      0.77052     1.75653    -0.33822
H      1.69339     1.51539    -0.08288
O      0.14243     1.62874     0.94622
H     -0.80182     1.76252     0.72134
