 36
-1364.9725811147769
O     -1.99167     2.67168    -0.46620
H     -2.28028     2.52926     0.44671
O     -1.06111     1.58993    -0.55515
H     -0.74342     1.64430    -1.47161
O     -2.44258     1.52360     2.02608
H     -1.73980     0.85992     2.19387
O     -3.61190     0.71303     1.95449
H     -3.89653     0.67551     2.87276
O      2.45600    -1.94205     3.05813
H      3.17302    -1.88642     3.69581
O      2.05788    -0.57883     2.96687
H      2.33246    -0.34942     2.04776
O      2.49185     0.03058     0.41894
H      2.21060    -0.56284    -0.31822
O      1.74387     1.22329     0.18783
H      0.82164     0.92210     0.29295
O     -0.60284    -0.38317     2.52862
H      0.28134    -0.42274     2.94376
O     -0.20816    -0.70986     1.19135
H     -1.06176    -0.97730     0.78508
O     -2.74821    -0.40827    -0.97390
H     -2.24426     0.40326    -0.75634
O     -2.66152    -1.14864     0.25592
H     -3.20663    -0.59921     0.85330
O      2.14447     1.89076    -2.35838
H      2.11309     1.68365    -1.40039
O      2.33474     0.57778    -2.88467
H      3.14028     0.67982    -3.40163
O      0.92110    -2.79943    -0.43895
H      0.89205    -2.36231     0.42456
O      1.51713    -1.78371    -1.25024
H      0.80234    -1.57574    -1.88953
O     -0.31486     0.42868    -3.04646
H      0.65651     0.44997    -3.15712
O     -0.53300    -0.96719    -2.77671
H     -1.41540    -0.95395    -2.37060
