 32
-1213.3096534579724
O      2.94054     0.12391     1.71469
H      2.84795     0.58183     0.86465
O      1.65292    -0.47672     1.83568
H      1.27911    -0.01192     2.61839
O      0.45431     0.03228    -3.50169
H      1.08259    -0.16845    -4.20341
O     -0.23054    -1.20445    -3.32323
H      0.03063    -1.43878    -2.40984
O     -2.73484     0.05124    -2.57705
H     -2.06973    -0.40869    -3.10723
O     -2.22894    -0.25780    -1.27282
H     -2.93269    -0.78783    -0.87032
O     -2.75794    -1.04499     1.62426
H     -2.87448    -0.91633     2.57132
O     -1.33921    -1.04950     1.50690
H     -1.15764    -0.11782     1.23954
O      1.25409     1.19905    -1.24131
H      0.83717     0.84177    -2.05577
O      2.57509     0.65672    -1.28808
H      2.38641    -0.29260    -1.16894
O      1.75031    -1.81119    -0.43311
H      1.71897    -1.46795     0.48929
O      0.37524    -1.94724    -0.78764
H     -0.11567    -1.74933     0.02759
O      0.67879     0.86839     3.91948
H      1.12392     1.57187     4.40348
O     -0.61510     1.39643     3.65950
H     -0.54164     1.61237     2.71806
O     -0.53521     1.34235     0.71005
H      0.21301     1.29636     0.07031
O     -1.54508     2.01257    -0.05415
H     -1.89898     1.25518    -0.56541
