 36
-1364.981593182365
O      0.66340     1.42202     0.79546
H      1.26699     0.79354     0.34577
O      1.46327     1.95320     1.84270
H      1.39522     1.21335     2.47730
O      0.25054    -1.81672    -2.77535
H      0.93729    -1.12218    -2.73290
O     -0.80782    -1.15830    -2.09273
H     -0.66871    -1.42040    -1.15931
O     -0.66432    -0.39923     2.84130
H     -0.88120     0.54793     2.84416
O      0.76003    -0.34234     3.01853
H      1.00805    -1.03032     2.38093
O      2.62245    -2.78477    -1.12395
H      3.22319    -3.21060    -1.74394
O      1.46123    -3.61182    -1.16850
H      0.90178    -3.10289    -1.79314
O     -1.32845     2.19754     2.43059
H     -0.50363     2.62952     2.14904
O     -2.32008     3.22206     2.30665
H     -2.83576     2.88601     1.55828
O     -2.26596     0.55950     0.08881
H     -1.60775     0.98804     0.66580
O     -2.99785     1.69637    -0.40021
H     -2.60544     1.78863    -1.28647
O      1.91949     0.15130    -2.11524
H      1.30839     0.92271    -2.04984
O      2.15817    -0.15471    -0.73532
H      2.34962    -1.11202    -0.79531
O     -1.14838     1.44867    -2.39104
H     -0.98506     0.48422    -2.30564
O      0.05315     2.01221    -1.87663
H     -0.12672     2.06410    -0.92433
O      0.65341    -2.21843     1.09078
H      0.80807    -3.10486     0.73157
O     -0.58560    -1.88873     0.45565
H     -1.07454    -1.48348     1.18916
