 32
-1213.315273675419
O      3.74143     0.86715     0.25131
H      4.68307     1.04132     0.15926
O      3.39601     1.68772     1.37153
H      2.50172     1.95548     1.09752
O      0.26834    -3.69003     1.31015
H      0.44795    -4.14784     2.13688
O     -1.11789    -3.36225     1.43098
H     -1.06516    -2.42451     1.71118
O     -1.99480     2.50031    -0.64729
H     -1.05158     2.45793    -0.90869
O     -1.87047     2.21078     0.74671
H     -1.96247     1.23710     0.76437
O     -3.12870     0.42596    -1.91015
H     -2.85747     1.24049    -1.43955
O     -2.22910     0.48566    -3.01790
H     -2.83179     0.40870    -3.76253
O      1.87108    -1.93313     0.11837
H      1.25032    -2.53287     0.58493
O      1.79706    -0.77711     0.95478
H      2.59016    -0.27178     0.67029
O      0.58362     2.05812    -0.69680
H      0.65033     1.12053    -0.96713
O      0.76294     1.98685     0.72088
H     -0.13716     2.22129     1.02130
O     -0.64759    -1.07001    -1.54426
H     -1.18443    -0.57501    -2.19784
O      0.63281    -0.44045    -1.67116
H      1.18681    -1.06355    -1.15441
O     -1.64009    -0.43054     0.82998
H     -1.26478    -0.82104     0.01388
O     -0.70646    -0.75620     1.84870
H      0.17972    -0.56949     1.47163
