 16
-606.6375237436984
O     -2.06385     0.37568     0.28798
H     -3.00202     0.17999     0.38884
O     -1.65337     0.51589     1.65674
H     -0.76423     0.90423     1.52751
O      0.89523     1.18633     1.20982
H      1.20564     1.27543     0.28769
O      1.63442     0.05637     1.66577
H      1.01071    -0.66094     1.48082
O      1.45535     1.42811    -1.40421
H      0.96396     2.08113    -1.90926
O      1.13831     0.22246    -2.10908
H      0.96474    -0.36897    -1.36477
O     -0.20488    -1.46993    -0.10261
H     -0.93420    -0.82141     0.00510
O     -0.91591    -2.61574    -0.57574
H     -0.63906    -2.63097    -1.49632
