 28
-1061.6447536867333
O     -0.73789    -1.91040    -2.75737
H     -0.15640    -1.89924    -1.96959
O     -1.93229    -2.45417    -2.19511
H     -2.30371    -2.92078    -2.94783
O      2.18126    -1.13338     2.83606
H      1.58714    -1.41603     2.12237
O      2.91663    -0.10632     2.18216
H      3.80853    -0.46660     2.13478
O     -2.09222    -0.45957     0.37769
H     -1.73345     0.36593     0.77037
O     -2.24754    -0.10194    -1.00344
H     -0.64828    -1.43125     0.53461
O     -1.12190     3.00370    -1.24754
H     -1.19824     3.50767    -2.06147
O     -0.56043     1.79959    -1.75118
H     -1.23617     1.12744    -1.49448
O     -0.75860     1.55282     1.51930
H      0.08606     1.77727     1.06884
O     -0.30334     0.63152     2.51245
H     -0.24476     1.19137     3.29431
O      0.85797    -1.56463    -0.62369
H      1.13737    -0.62715    -0.54370
O      0.24094    -1.82666     0.64231
H     -2.23409    -0.98302    -1.42919
O      1.71071     1.65413     0.59698
H      2.14866     0.99726     1.17480
O      1.72210     0.97241    -0.65697
H      0.97198     1.40600    -1.11669
