 32
-1213.3071819940492
O      2.87416     0.57000     2.74526
H      3.40537     1.09423     3.34933
O      2.75703     1.46534     1.64374
H      1.79167     1.65603     1.61089
O     -1.85574    -1.89805     0.28360
H     -2.23968    -2.02132    -0.59726
O     -1.35991    -3.20123     0.60944
H     -0.44645    -2.96733     0.81820
O     -2.42352    -0.24194    -2.66487
H     -2.90923    -0.02687    -3.46533
O     -3.44575    -0.73598    -1.80393
H     -3.45469    -0.04143    -1.10460
O      0.20601     1.86874     0.91500
H      0.17002     1.68484    -0.04649
O     -0.58282     0.80531     1.45793
H     -0.04832     0.00948     1.26249
O      3.06914     0.70099    -0.90308
H      3.09990     0.93381     0.04665
O      3.38864     1.96046    -1.48960
H      3.89752     1.66481    -2.24831
O      0.49396     0.98851    -1.61747
H      1.46362     0.87601    -1.56173
O      0.07178    -0.38041    -1.64218
H     -0.84243    -0.29867    -1.97065
O      0.95769    -1.28996     0.68873
H      0.80546    -1.13441    -0.26479
O      2.28782    -1.77954     0.72817
H      2.67517    -1.14473     1.34394
O     -3.70170    -0.10663     1.10843
H     -3.10763    -0.87161     1.03152
O     -3.00520     0.83219     0.28657
H     -2.15216     0.94600     0.76013
