 20
-758.2976877428946
O     -0.97597    -2.18645     1.40695
H     -0.03632    -2.00445     1.60581
O     -1.45080    -2.69641     2.65617
H     -1.68051    -3.59510     2.40336
O      1.67346    -1.45637     0.36575
H      1.31663    -0.60710     0.04937
O      1.53397    -1.28807     1.78067
H      2.40213    -1.56020     2.09179
O      1.01161     1.94633    -0.18159
H      1.04126     2.46991    -0.99496
O      0.41054     0.75585    -0.70851
H     -0.45948     0.75601    -0.25951
O      1.42172     2.80195    -2.83785
H      2.37051     2.79705    -3.00266
O      1.00091     1.61711    -3.52708
H      0.77411     1.04954    -2.77556
O     -1.86501     0.33282     0.72170
H     -1.77517    -0.60664     0.97158
O     -3.08771     0.33547    -0.01724
H     -3.62483     0.91094     0.53458
