 28
-1061.6395505003434
O     -2.31911    -1.23337    -0.48179
H     -1.73818    -1.95818    -0.18771
O     -2.02667    -1.19150    -1.88075
H     -1.23689    -0.62441    -1.89694
O      3.11190     0.14871     0.19720
H      2.79002     0.48779    -0.65514
O      2.04834     0.60779     1.04372
H      1.73770    -0.22171     1.43192
O      0.51216    -1.57394     2.28263
H      0.73541    -1.75205     3.20114
O     -0.87403    -1.23809     2.37939
H      0.12961    -2.70922     0.94635
O      0.51786     3.00606    -0.35470
H      0.72913     3.62918     0.34879
O     -0.71717     3.50974    -0.87062
H     -1.31795     2.82926    -0.51686
O      1.53563     1.00686    -1.85096
H      1.15175     1.79194    -1.41734
O      0.43859     0.09213    -1.77841
H      0.81988    -0.64744    -1.28021
O      0.70353    -2.69284    -0.85022
H      0.31462    -3.11051    -1.62373
O     -0.31786    -2.94924     0.11933
H     -0.86697    -0.31061     2.03554
O     -1.82069     1.28148     0.27623
H     -2.04325     0.34194     0.06936
O     -0.80070     1.13561     1.27269
H      0.00508     1.25902     0.73959
