 24
-909.9810887287232
O     -1.96838    -0.93538     1.67150
H     -2.29141    -1.43428     0.90701
O     -2.21773     0.40612     1.24149
H     -1.32778     0.81534     1.29981
O      0.11982    -0.52528    -1.75671
H     -0.82396    -0.33209    -1.88434
O      0.64086     0.77808    -1.48440
H      1.60653     0.60634    -1.47504
O      0.14276     1.62495     0.96731
H      0.27824     1.40470     0.02519
O      1.40304     1.20924     1.50358
H      1.28366     0.23560     1.50525
O     -3.00724    -1.34329    -1.07239
H     -3.92202    -1.35890    -1.37380
O     -2.62289     0.00017    -1.39859
H     -2.57476     0.37688    -0.49696
O      0.67317    -1.32893     1.44771
H     -0.24832    -1.27152     1.75929
O      0.50964    -2.20377     0.32761
H      0.37541    -1.57536    -0.40320
O      3.19032     1.77391    -0.46708
H      2.67675     1.60720     0.34600
O      3.22550     0.44896    -1.00728
H      4.09010     0.43732    -1.43055
