 32
-1213.3053954635786
O      2.98320    -1.12927     0.25560
H      2.51749    -1.80788    -0.25364
O      1.93697    -0.17149     0.39792
H      1.56875    -0.36573     1.27689
O     -2.18232    -3.22708    -1.79814
H     -2.68669    -3.99357    -1.51288
O     -2.52343    -2.28019    -0.78308
H     -2.28115    -1.44364    -1.23396
O     -1.72857     0.09390    -1.71460
H     -1.95683     0.70277    -0.98386
O     -0.30443     0.20326    -1.70994
H     -0.01043    -0.72386    -1.56140
O     -1.32515     1.70804     1.30039
H     -0.74811     2.24735     0.69557
O     -2.46917     1.45205     0.49053
H     -3.01965     2.21990     0.66876
O      2.62377     2.38396     0.58205
H      2.47083     1.43084     0.38288
O      2.51830     2.37505     2.01052
H      3.41146     2.63754     2.25109
O      0.70157    -2.78924    -0.10817
H      0.07802    -2.27669     0.43594
O      0.32911    -2.40418    -1.43465
H     -0.49220    -2.91369    -1.57820
O      0.18466     3.21786    -0.25872
H      1.13147     3.15930    -0.01552
O      0.21678     2.85320    -1.63839
H      0.09085     1.88573    -1.59229
O     -0.18739    -0.53342     2.35607
H     -0.66327     0.25770     2.03821
O     -0.90700    -1.55827     1.68008
H     -1.23652    -2.08488     2.41491
