 28
-1061.6432658545734
O     -0.03059    -0.98144     1.40348
H     -0.33226    -1.16459     0.49522
O      1.37685    -1.21605     1.31047
H      1.72803    -0.30816     1.21623
O      3.22694    -2.07950    -0.86622
H      2.62737    -1.94975    -0.11300
O      4.17974    -1.04022    -0.65565
H      4.96073    -1.51668    -0.35608
O     -3.54772     1.51715     1.61575
H     -2.57550     1.54351     1.71831
O     -3.76338     0.09988     1.65419
H     -2.85752    -0.45190     0.31542
O     -0.83324     1.54731     1.59854
H     -0.47224     0.63348     1.58616
O     -0.58021     1.99628     0.26056
H     -1.25754     1.49957    -0.25036
O      0.32116    -0.94906    -1.64365
H      0.89768    -0.19361    -1.40911
O     -0.20909    -0.48151    -2.88340
H     -0.12005    -1.26686    -3.43052
O     -2.13014     0.38262    -1.19832
H     -1.61138     0.02986    -1.94043
O     -2.26920    -0.79224    -0.38718
H     -4.70744     0.05832     1.83384
O      1.71433     1.08647    -0.67826
H      0.98837     1.57216    -0.22336
O      2.66972     0.92937     0.36862
H      3.33057     0.37556    -0.08451
