 24
-909.9779287666641
O     -1.79602    -1.61806     0.21922
H     -2.48142    -1.23003    -0.34477
O     -1.97673    -0.83489     1.40612
H     -1.20743    -1.11994     1.92729
O      0.41109    -1.12196    -1.18252
H     -0.37503    -1.31012    -0.62597
O     -0.07822    -0.09585    -2.05080
H      0.26449     0.68375    -1.57280
O      3.04221    -0.41971    -0.94106
H      2.09504    -0.65550    -0.98454
O      3.07352     0.57321     0.08790
H      2.93781     0.04375     0.88669
O     -2.39460     1.52717    -0.82716
H     -2.69638     2.25667    -1.38033
O     -2.67935     0.38551    -1.64056
H     -1.77417     0.17029    -1.95295
O      1.19845    -0.63389     1.83638
H      0.69097     0.15600     1.55610
O      0.29550    -1.18956     2.79179
H      0.70837    -2.04428     2.94626
O      0.77442     1.81592    -0.37926
H      1.68216     1.51232    -0.14808
O      0.03230     1.50684     0.80945
H     -0.86785     1.47883     0.44576
