 36
-1364.977376530934
O      0.71594     1.86407    -1.37117
H      1.21856     1.22872    -1.94171
O      1.40862     1.70319    -0.12634
H      0.73105     2.03702     0.50394
O     -0.43114    -1.79679    -0.51397
H     -0.10484    -2.71056    -0.54299
O     -1.84525    -1.99900    -0.39736
H     -2.14527    -1.06507    -0.43178
O     -1.42153     1.68783     1.97958
H     -0.88324     0.87327     1.99112
O     -0.51003     2.65194     1.45542
H     -1.11624     3.23533     0.96562
O     -0.13481    -0.67320     1.86092
H     -0.27489    -1.07804     0.97644
O      0.88458    -1.49805     2.43426
H      1.66237    -1.13128     1.96639
O     -1.88102     3.10687    -1.43605
H     -0.92583     2.95113    -1.51060
O     -1.91054     4.05122    -0.37436
H     -2.35037     4.80224    -0.78379
O     -2.43924     0.58962    -0.51521
H     -2.43169     1.47617    -0.91897
O     -3.45325     0.71322     0.47744
H     -2.91450     1.06820     1.20473
O      2.59553    -0.52283     0.67691
H      2.16645     0.26912     0.28442
O      2.63507    -1.45324    -0.40489
H      2.40162    -2.28921     0.03760
O      0.84462    -0.85780    -3.03380
H      0.30764    -0.90288    -2.23118
O      1.96707    -0.10309    -2.59999
H      2.35827    -0.68315    -1.91782
O      1.98600    -3.82856     0.69848
H      2.39436    -4.58008     1.13855
O      0.64152    -3.88017     1.16775
H      0.63793    -3.11741     1.78567
