 36
-1364.9794200125098
O      2.47880    -2.53367     0.56741
H      2.01030    -1.71970     0.84654
O      3.50888    -1.99183    -0.25234
H      4.24715    -1.88018     0.35578
O     -0.57406    -3.42883    -0.60184
H     -1.28736    -3.25437    -1.23089
O      0.53685    -3.04254    -1.42973
H      1.27541    -3.27804    -0.85321
O     -0.52162     3.78984     1.78121
H     -0.19302     4.26472     2.55079
O      0.65316     3.17241     1.27828
H      0.49119     2.22863     1.48849
O      1.50953    -0.10006     1.18953
H      1.77804     0.40817     0.39098
O      0.30571     0.56293     1.57598
H     -0.36364    -0.15733     1.48630
O     -1.94909    -1.36803    -1.94318
H     -2.27233    -1.22536    -1.03036
O     -0.85623    -0.45350    -2.01507
H     -0.06872    -1.01338    -1.87949
O     -2.34564     1.81194     2.18510
H     -1.80517     2.59000     1.97445
O     -2.77680     1.35021     0.90518
H     -2.10795     1.69413     0.28244
O      0.21654     2.61311    -1.46789
H      0.42004     3.17424    -0.70562
O     -0.96560     1.97940    -0.98714
H     -0.90147     1.09128    -1.40231
O      2.22923     0.88284    -1.14703
H      1.50057     1.43106    -1.50554
O      1.97206    -0.39169    -1.72217
H      2.66304    -0.91703    -1.27669
O     -1.26446    -1.54919     1.23870
H     -0.96767    -2.29779     0.68529
O     -2.55573    -1.28679     0.67478
H     -2.68607    -0.33773     0.91662
