 36
-1364.973804388726
O     -0.27220     1.31169     1.26012
H     -0.05156     0.44494     0.84128
O     -1.05715     1.97373     0.25852
H     -1.84188     1.38472     0.17345
O     -1.76362     0.31066     4.05404
H     -2.10305     0.80263     4.80690
O     -2.25674     1.10766     2.97704
H     -1.42789     1.35301     2.51064
O      2.55994     1.99534     1.01211
H      1.63772     2.07245     1.29977
O      2.62110     0.58808     0.77247
H      3.27451     0.27765     1.40851
O      2.47344    -2.16725    -0.21307
H      2.91396    -1.71995    -0.95739
O      3.54789    -2.54823     0.64061
H      3.50756    -3.50203     0.54028
O      0.27781     1.88930    -2.10624
H     -0.11541     2.10162    -1.23506
O     -0.88766     1.62992    -2.89985
H     -0.92540     0.66045    -2.85391
O     -3.02762    -0.70625     1.13569
H     -2.94906    -0.08198     1.88514
O     -3.06349     0.22446     0.04783
H     -2.88959    -0.36793    -0.70978
O      0.07252    -1.05011     0.07624
H      0.97535    -1.43773     0.05377
O     -0.57775    -1.89600     1.03191
H     -1.46466    -1.48191     1.07015
O      3.18738     0.18684    -1.84751
H      3.03476     0.52677    -0.94838
O      1.86237    -0.24968    -2.18649
H      1.35458     0.59869    -2.21530
O     -2.47758    -1.26886    -2.08541
H     -2.65285    -2.06428    -2.59699
O     -1.09974    -1.03387    -2.35958
H     -0.69932    -1.14483    -1.47376
