 36
-1364.9772555522381
O      3.52486    -0.05010     0.97165
H      4.41612     0.28319     1.11194
O      2.95752     0.03122     2.27865
H      2.80883    -0.90676     2.46965
O     -2.96762     0.73573    -0.29369
H     -2.34419    -0.01488    -0.38355
O     -2.10269     1.85150    -0.56076
H     -2.18323     1.96521    -1.53212
O      2.01874     0.63381    -1.55004
H      1.47408     0.97097    -0.81535
O      1.07425     0.64838    -2.61974
H      0.91871    -0.31094    -2.71065
O      0.28508     1.26201     0.40179
H     -0.62262     1.57071     0.14865
O      0.24787     1.27346     1.82971
H      1.14036     0.95456     2.03553
O     -1.16615    -1.21080    -0.18807
H     -0.45599    -0.83712     0.36749
O     -1.88460    -2.03854     0.71296
H     -2.02395    -1.41465     1.46889
O     -1.85010    -0.21516     2.57387
H     -1.12003     0.41300     2.40129
O     -2.99430     0.62646     2.46210
H     -3.10235     0.68365     1.49478
O     -0.78506     2.78598    -3.00604
H     -0.12794     2.07951    -2.93209
O     -1.94792     1.99117    -3.23982
H     -2.39873     2.49266    -3.92581
O      0.64145    -1.80008     1.94142
H     -0.07217    -2.45578     1.99299
O      1.80786    -2.58707     1.68274
H      1.94688    -2.42132     0.73445
O      0.96764    -1.92378    -1.99598
H      0.18942    -1.93601    -1.41783
O      2.04569    -1.95230    -1.05400
H      2.36087    -1.02655    -1.10846
