 24
-909.9752998687393
O     -2.43081     0.56010     1.66892
H     -2.71438     1.19219     0.99610
O     -1.79397    -0.42135     0.85066
H     -1.03100    -0.66584     1.40093
O      1.96060    -2.65253    -2.07957
H      2.61178    -2.15108    -2.57868
O      1.66201    -1.73304    -1.02910
H      0.77441    -1.40581    -1.30163
O      0.72671     1.43440     1.23841
H      0.06603     2.01162     0.81139
O      1.46956     0.96443     0.10917
H      1.57621     0.02451     0.32685
O     -1.06339     3.08931     0.10253
H     -0.85156     3.83521    -0.46815
O     -2.10212     2.41428    -0.60787
H     -1.56628     1.80673    -1.16340
O      1.27001    -2.75883     1.75847
H      1.56130    -2.79580     0.83644
O      0.87222    -1.38832     1.82755
H      1.40403    -1.04651     2.55408
O     -0.29223     0.83880    -1.82054
H      0.46337     0.95445    -1.20203
O     -0.65933    -0.51378    -1.53428
H     -1.18021    -0.41874    -0.70822
