 32
-1213.3113755301706
O      3.74090    -0.78894     0.56031
H      3.69238    -0.88038    -0.39831
O      2.72061     0.17731     0.77193
H      2.26830    -0.17479     1.55557
O      1.00022    -2.23016     0.01485
H      1.71041    -1.94363    -0.59691
O     -0.00429    -2.52598    -0.98371
H     -0.59979    -1.75661    -0.88137
O     -1.37459    -0.28144    -0.59673
H     -0.69362     0.32592    -0.22030
O     -1.63647     0.40276    -1.82305
H     -2.26523     1.07311    -1.50161
O     -1.54698     1.39410     2.73149
H     -1.49085     2.10876     2.08361
O     -2.43112     0.47918     2.05690
H     -1.81189    -0.26873     1.90397
O      0.64293     1.31177    -0.43799
H      1.44967     0.92265    -0.04160
O      0.91232     1.12849    -1.83410
H      0.01776     0.88265    -2.13499
O      2.24232    -1.20394    -2.07435
H      1.88856    -0.29266    -2.04823
O      1.43976    -1.75467    -3.12578
H      0.78108    -2.23246    -2.59268
O     -0.31496    -1.08299     2.02700
H      0.22306    -1.49563     1.31197
O      0.61740    -0.17109     2.62933
H     -0.00690     0.52684     2.89306
O     -2.71630     3.05188     0.27895
H     -3.47915     3.63485     0.34555
O     -3.32790     1.82969    -0.14303
H     -3.18135     1.27470     0.64839
