 32
-1213.3055011545657
O      1.96147     0.11039    -0.56342
H      1.67687    -0.82204    -0.73910
O      3.11804    -0.06235     0.24155
H      3.78011     0.34633    -0.31937
O     -1.97563    -1.31085    -1.25850
H     -1.52246    -1.15397    -0.39906
O     -2.83541    -0.16946    -1.27845
H     -3.36157    -0.35285    -2.06138
O      1.14694    -3.06328     0.32862
H      0.53949    -2.59724     0.92855
O      0.91753    -2.32126    -0.87268
H      0.97426    -2.98878    -1.56408
O     -0.75437     1.51536    -1.62103
H     -1.53338     1.00250    -1.33535
O     -0.09270     1.76089    -0.38285
H      0.64700     1.12113    -0.41706
O      1.60967     1.75842     3.08735
H      0.80680     2.28301     2.96220
O      1.34618     0.71012     2.16091
H      2.09706     0.73672     1.54022
O      0.56944    -0.36513    -3.07744
H      0.09649     0.43498    -2.79108
O     -0.48383    -1.22031    -3.52825
H     -0.94471    -1.40766    -2.69395
O     -0.28741    -1.35298     1.94419
H      0.40383    -0.69966     2.16664
O     -1.07426    -0.55821     1.05472
H     -1.33693     0.22213     1.59070
O     -1.88247     1.68681     2.25270
H     -2.72571     2.14486     2.19769
O     -0.95341     2.72346     1.95042
H     -0.63236     2.42383     1.07524
