 24
-909.9738169242364
O     -2.36433    -1.86988     0.48305
H     -3.30146    -1.73384     0.31410
O     -1.95073    -0.56071     0.88237
H     -1.12469    -0.80692     1.34967
O     -0.46721    -1.75253    -1.37901
H     -1.10309    -1.98285    -0.67442
O      0.77945    -2.16958    -0.81145
H      1.37551    -1.46766    -1.12270
O      2.40860     0.14621    -0.64508
H      2.16574     0.06872     0.29771
O      2.08710     1.52819    -0.87855
H      1.52230     1.44722    -1.65592
O     -0.04702     1.21249    -2.84566
H     -0.50791     2.02378    -3.07615
O     -0.64031     0.93017    -1.57649
H     -0.58012    -0.04721    -1.56088
O      1.30580    -0.17452     1.76678
H      0.66012     0.54557     1.93598
O      0.44945    -1.31920     1.71598
H      0.71691    -1.74047     0.87329
O     -0.48328     1.74427     2.17498
H     -1.30059     1.64663     2.67523
O     -0.91751     2.44910     1.01569
H     -0.63301     1.84160     0.31287
