 36
-1364.9734047768377
O      2.01970     2.56616    -0.63435
H      1.96896     2.33034     0.31407
O      2.87691     1.52993    -1.12136
H      2.40186     1.22158    -1.90523
O     -0.19077    -2.01459     3.19372
H      0.08937    -2.52201     3.96037
O      0.12261    -0.67730     3.57807
H      0.87255    -0.45993     2.97266
O     -1.23345    -1.79028     0.73962
H     -1.04130    -2.07752     1.65380
O     -2.58573    -2.18750     0.51586
H     -2.83198    -1.49653    -0.12050
O      0.87067    -1.09269    -0.71671
H      0.03493    -1.41375    -0.30839
O      1.69233    -2.25962    -0.64944
H      1.93970    -2.32975    -1.58173
O     -2.84780    -0.06916    -1.19127
H     -3.60385     0.13162    -1.75117
O     -1.80424    -0.22416    -2.15042
H     -1.32057     0.62580    -2.05078
O     -0.42214     2.02016    -1.57882
H      0.45568     2.36331    -1.27809
O     -1.34632     2.82890    -0.85551
H     -1.62520     2.19928    -0.17933
O      1.84238     0.13089     1.75562
H      1.79088    -0.10131     0.81238
O      1.39675     1.49324     1.77768
H      0.42805     1.37906     1.65416
O     -1.82636     0.94943     2.60210
H     -1.20204     0.46853     3.17338
O     -1.12521     0.85708     1.36857
H     -1.33751    -0.04634     1.05824
O      1.70598    -1.23901    -3.62649
H      1.05448    -1.49324    -4.28859
O      1.13351    -0.03332    -3.10902
H      0.83443    -0.35124    -2.22912
