 32
-1213.3136661875383
O      3.53831    -1.73549    -1.02691
H      3.49585    -0.81093    -1.33184
O      4.36193    -1.58555     0.13125
H      5.08840    -2.18272    -0.07393
O     -2.08452    -1.47162    -0.07084
H     -1.26057    -1.90397     0.22589
O     -3.02048    -1.85414     0.94028
H     -3.43321    -1.00395     1.14228
O      0.51605    -0.17580    -2.69441
H      0.52238    -0.73043    -1.89556
O      0.42347     1.11945    -2.10727
H     -0.54243     1.18320    -1.91469
O     -2.08602     0.90282    -1.24976
H     -2.12706     0.05492    -0.75288
O     -2.27960     1.89295    -0.24201
H     -1.37375     1.93584     0.12175
O     -0.11852     0.55145     1.86174
H     -1.05707     0.70593     2.08579
O      0.10010     1.50852     0.82367
H      1.02467     1.31128     0.56238
O      0.78207    -1.66211    -0.45985
H      1.73335    -1.87256    -0.47756
O      0.44280    -1.89795     0.90454
H      0.37879    -0.98800     1.26109
O      2.67368     1.17184     0.18501
H      3.27505     0.55232     0.62085
O      2.90936     0.88913    -1.20525
H      2.01398     1.04579    -1.58681
O     -3.71117     0.79134     1.69505
H     -3.36333     1.26228     0.90331
O     -2.64350     1.04260     2.60817
H     -2.99620     1.75069     3.15769
