 28
-1061.644854343066
O      0.69649     1.39717     1.19616
H     -0.22072     1.10449     1.03101
O      1.08221     1.81433    -0.11659
H      1.56867     1.02552    -0.42774
O      1.00794    -0.65010     3.33823
H      1.15673    -0.14388     2.52464
O     -0.12155    -1.45047     3.00195
H     -0.87322    -0.83823     3.00525
O     -1.79552     0.62640     0.75364
H     -2.55032     1.19258     0.54939
O     -2.36487    -0.43101     1.52836
H      1.01847    -0.43830    -2.93135
O     -1.17107     3.07663    -0.88216
H     -0.29964     2.68331    -0.65908
O     -1.57458     2.22866    -1.95483
H     -1.46579     2.79474    -2.72760
O      0.38741    -2.24063     0.53879
H      0.19798    -2.08009     1.49174
O     -0.90714    -2.04650    -0.04821
H     -0.70581    -1.39736    -0.75588
O     -0.44935    -0.16309    -1.84871
H     -0.88415     0.71846    -1.86560
O      0.10231    -0.24203    -3.15835
H     -2.05332    -1.19066     0.99924
O      2.73532    -1.22172    -1.69547
H      3.66241    -1.32731    -1.46692
O      2.23223    -0.61332    -0.50718
H      1.60804    -1.30059    -0.16926
