 40
-1516.6523198123648
O      3.53676     1.23073    -0.45165
H      3.46631     0.76547     0.39977
O      2.57756     2.27859    -0.25458
H      2.27720     2.44698    -1.16388
O      1.57071    -0.03866     1.19428
H      1.37692    -0.24060     0.25201
O      2.84989    -0.64989     1.35801
H      2.61592    -1.58833     1.24488
O     -1.51375    -0.08452    -1.32581
H     -0.93524     0.45772    -1.90309
O     -2.42821     0.89341    -0.81519
H     -3.05123     0.33105    -0.30504
O     -0.86970    -1.80436     0.57373
H     -1.03311    -1.13416    -0.14088
O     -1.83478    -2.80413     0.24499
H     -2.55609    -2.50030     0.82072
O     -0.82875     0.17310     3.05150
H     -0.07039     0.01257     2.46826
O     -1.76059     0.71867     2.12415
H     -1.25192     1.45208     1.70573
O     -0.79757     2.94367    -0.38016
H     -1.49053     2.26332    -0.51674
O     -0.19724     2.42448     0.80940
H      0.74908     2.38547     0.58053
O      0.93098     2.55668    -2.38632
H      0.23074     2.89746    -1.79654
O      0.36715     1.28484    -2.71820
H      1.15399     0.70868    -2.75685
O     -4.21492    -0.49206     0.62181
H     -4.97512    -0.11373     1.07409
O     -3.53421    -1.17844     1.66789
H     -2.86552    -0.49644     1.91806
O      1.41498    -3.43129    -0.52768
H      0.66528    -4.03655    -0.51042
O      1.45205    -2.92511     0.80673
H      0.58048    -2.44935     0.84348
O      1.30079    -0.91408    -1.28249
H      1.42601    -1.88753    -1.22061
O      2.32996    -0.49671    -2.18330
H      2.89525     0.00673    -1.56610
