 32
-1213.3086215376286
O      2.88874    -1.90381     1.65292
H      2.67074    -2.17438     0.73996
O      4.11707    -1.21423     1.43844
H      4.57613    -1.38933     2.26312
O      1.66050    -2.24309    -0.71107
H      0.74190    -2.03933    -0.47263
O      2.00402    -1.10041    -1.51019
H      2.10824    -0.39813    -0.83382
O     -3.17945    -0.69985    -1.14833
H     -3.51058    -1.53464    -1.49648
O     -3.14191    -0.94194     0.26105
H     -2.17781    -1.03664     0.40947
O     -0.69181     1.77205     0.55072
H     -1.57482     2.15861     0.36193
O      0.10550     2.21300    -0.55722
H     -0.12710     1.53113    -1.21993
O      2.71815     1.89546     0.09207
H      1.82832     2.26010    -0.04928
O      2.33328     0.58142     0.51495
H      3.11578     0.24524     0.99014
O     -0.39225    -0.86614    -2.72447
H      0.53518    -0.87414    -2.41864
O     -0.89319     0.31270    -2.09028
H     -1.74761    -0.01344    -1.74688
O     -0.47427    -0.87484     0.65885
H     -0.38357     0.11285     0.70164
O     -0.09658    -1.30167     1.95760
H      0.86736    -1.27724     1.87676
O     -3.21781     2.51552     0.11065
H     -3.74540     3.30811     0.24966
O     -3.51251     1.75405     1.28076
H     -3.58028     0.87388     0.88663
