 36
-1364.9823929941306
O      2.49154     1.66364    -1.11221
H      2.43752     1.15348    -1.94330
O      3.40004     0.81782    -0.39473
H      2.80491     0.42579     0.27463
O     -1.38169    -2.29078     2.77844
H     -1.13759    -3.19482     2.99817
O     -0.31842    -1.52914     3.34042
H      0.33178    -1.53137     2.59694
O     -2.52019    -1.51474     0.51072
H     -2.12663    -1.69248     1.38632
O     -2.73436    -0.10738     0.59604
H     -3.00079     0.10797    -0.31558
O      0.01746    -0.95869    -1.24995
H     -0.54691    -0.31609    -1.73101
O     -0.71372    -2.17655    -1.35661
H     -1.41625    -2.01964    -0.69435
O     -2.96306     0.86362    -1.90251
H     -3.46277     0.91647    -2.71966
O     -1.62591     0.88138    -2.39076
H     -1.23566     1.60645    -1.85258
O     -0.16325     2.22629    -0.69775
H      0.81104     2.31361    -0.71777
O     -0.64127     3.34063     0.05243
H     -0.68314     2.93719     0.93029
O      1.06075    -1.39723     1.13253
H      0.63300    -1.24808     0.25157
O      1.66603    -0.13968     1.44061
H      0.87414     0.42909     1.56272
O     -1.13053     1.08257     3.12106
H     -0.86362     0.20279     3.43137
O     -0.64662     1.01818     1.78657
H     -1.42652     0.67407     1.29335
O      3.68572    -1.13159    -2.42525
H      4.01502    -0.56559    -1.71055
O      2.49924    -0.40944    -2.79139
H      1.80607    -0.94401    -2.38272
