 32
-1213.3084863369538
O      1.79941    -2.33031    -1.59854
H      2.23296    -2.46286    -0.74703
O      1.18080    -1.07004    -1.33550
H      0.24675    -1.21144    -1.59494
O     -1.59739    -1.91686     1.96925
H     -2.42186    -2.39995     2.04737
O     -1.03062    -2.56374     0.83874
H     -0.10774    -2.72892     1.13037
O     -2.22255    -0.81080    -0.77420
H     -1.81785    -1.50516    -0.20741
O     -1.45630    -0.97021    -1.98169
H     -1.54032    -0.08515    -2.38663
O     -0.08242     1.65082    -2.10299
H     -0.64212     1.82488    -1.32120
O     -1.10416     1.45225    -3.08913
H     -0.58444     1.47661    -3.89812
O      0.19798     3.91906     0.93564
H      0.32428     4.34703     0.08313
O      1.51174     3.45688     1.25151
H      1.49525     2.54859     0.88874
O      1.55725     0.91127     0.36149
H      1.49733     0.27412    -0.38569
O      0.92152     0.14921     1.38906
H      0.04430     0.58824     1.42521
O      1.45529    -3.06800     1.73321
H      1.74475    -3.20935     2.64061
O      2.36509    -2.08175     1.24782
H      1.82888    -1.26098     1.33768
O     -1.80947     1.72468    -0.08544
H     -2.07636     0.78782    -0.20522
O     -1.22031     1.71465     1.21444
H     -0.80041     2.60286     1.22706
