 12
-454.9725516130872
O     -0.55774    -0.56404    -1.68361
H     -1.04091    -0.57893    -0.83795
O      0.63819    -1.25053    -1.29187
H      0.95762    -1.56518    -2.14253
O      1.98291     0.30377     1.35497
H      2.67679     0.96872     1.39187
O      1.16699     0.82763     0.30317
H      1.15013     0.07074    -0.31597
O     -1.50607     1.08125     0.97460
H     -0.54424     1.02282     0.84020
O     -1.86861    -0.27591     0.66654
H     -2.82688    -0.21200     0.70218
