 32
-1213.3039717589475
O      2.67699     0.56440     1.65683
H      2.66301     0.07885     0.81248
O      2.52490     1.89679     1.14092
H      1.64300     2.12748     1.49484
O     -0.63696    -2.78382    -0.46216
H      0.03781    -3.03557    -1.11158
O     -1.42870    -1.93608    -1.30724
H     -2.15840    -1.68887    -0.70684
O     -0.66136     0.95131    -1.62462
H      0.28422     1.19882    -1.56670
O     -1.22239     1.66370    -0.50908
H     -2.06199     1.19585    -0.38785
O     -0.64624     3.43695     2.19173
H     -1.04465     3.17944     3.02554
O     -0.03562     2.20036     1.82779
H     -0.49862     1.99880     0.98282
O      2.01139     1.27794    -1.39829
H      2.27197     1.77141    -0.59316
O      2.28560    -0.05692    -0.91825
H      1.92997    -0.57033    -1.66494
O      1.03579    -2.70778    -2.58786
H      1.02350    -3.08344    -3.47570
O      0.92059    -1.31029    -2.86656
H      0.01487    -1.11614    -2.56498
O     -0.44616    -0.61938     1.15451
H     -0.27507    -1.41003     0.59207
O      0.18552    -0.88969     2.40464
H      0.93742    -0.28649     2.33558
O     -3.00836    -0.07426     1.12513
H     -2.06202    -0.29469     1.28841
O     -3.40922    -1.20248     0.34737
H     -3.78767    -1.79211     1.00785
