 20
-758.3046716166159
O     -0.16856    -1.23956     0.56908
H      0.44978    -1.21993     1.32739
O     -1.11808    -0.25489     1.00813
H     -1.22972     0.23482     0.17793
O      1.39941     2.65977     0.56194
H      2.31323     2.85512     0.78175
O      1.50424     1.27889     0.22415
H      0.91045     1.21455    -0.54831
O      1.86282     0.43345     2.74332
H      1.61168     0.71051     1.84106
O      1.20705    -0.84025     2.81926
H      0.51891    -0.66547     3.46749
O     -1.18431    -1.84002    -2.48182
H     -1.61532    -2.39880    -3.13480
O     -1.84242    -2.25613    -1.27965
H     -1.15772    -2.02045    -0.62392
O     -1.34449     0.66571    -1.57948
H     -1.31461    -0.20486    -2.02616
O     -0.08841     1.21894    -1.97399
H     -0.35653     2.03247    -2.41195
