 32
-1213.3078430404576
O      2.44447    -0.91760     0.47858
H      2.73826     0.01552     0.46945
O      2.56873    -1.28238     1.85546
H      1.66444    -1.10651     2.14927
O      1.60192    -2.75957    -1.57010
H      1.90764    -2.47224    -0.69703
O      0.23589    -3.01238    -1.27552
H      0.16004    -3.95364    -1.46101
O     -2.12919    -1.60542    -0.17165
H     -1.34956    -1.86991    -0.68162
O     -2.55685    -0.43972    -0.88216
H     -3.06268     0.01638    -0.17249
O     -1.24560     2.24098    -0.58930
H     -1.26027     1.31306    -0.88490
O     -0.25885     2.21166     0.44896
H      0.55692     2.45360    -0.02284
O      1.62942    -0.02644    -2.18175
H      1.70892    -0.98785    -2.30922
O      0.38696     0.05793    -1.48794
H      0.62021    -0.27340    -0.59574
O      3.12980     1.64304     0.23073
H      3.98648     2.03828     0.04056
O      2.29202     2.18994    -0.78649
H      2.16923     1.41791    -1.37701
O     -1.30918    -0.62146     2.15018
H     -1.70161    -1.16701     1.44048
O     -0.10878    -0.21911     1.48310
H     -0.29413     0.71580     1.24370
O     -3.59736     0.86594     1.15937
H     -2.93081     0.71157     1.84835
O     -3.52719     2.27821     0.92682
H     -2.75573     2.34462     0.33480
