 40
-1516.6383868297598
O      2.40927     3.26407    -1.74618
H      2.79634     2.71588    -1.04706
O      1.07060     3.39065    -1.28767
H      0.59518     2.70583    -1.78260
O      0.98383    -0.27450    -0.75655
H      0.92013     0.49456    -0.15548
O      1.89391    -1.14078    -0.05963
H      1.71824    -1.97530    -0.53750
O     -1.10382    -1.71251    -1.45902
H     -0.41407    -1.06745    -1.18502
O     -2.04425    -0.89050    -2.14134
H     -2.74165    -0.86754    -1.45618
O     -2.70799     0.35261     0.85007
H     -2.56274     0.93697     0.07775
O     -3.20142    -0.84332     0.24094
H     -2.66812    -1.52390     0.68561
O     -1.09995     1.62219    -2.01795
H     -1.46426     0.73937    -2.23768
O     -2.09973     2.13007    -1.12571
H     -1.53257     2.60752    -0.50483
O      3.42159     1.18033     0.22540
H      3.30619     0.22193     0.16018
O      3.42405     1.37034     1.64631
H      2.66764     1.96264     1.75613
O      0.89385     2.93869     1.30346
H      1.05273     3.29132     0.39970
O     -0.10713     1.96110     0.96039
H     -0.12912     1.37770     1.75153
O     -1.43765    -0.39863     3.06766
H     -1.93119     0.00695     2.32844
O     -0.09323    -0.04655     2.71850
H      0.22031    -0.85632     2.28520
O      1.10956    -3.55813    -1.02237
H      1.49163    -4.43122    -0.89812
O      0.84500    -3.53548    -2.42762
H     -0.03984    -3.14145    -2.40601
O     -0.29303    -2.64465     1.44926
H     -0.17509    -3.05738     0.58011
O     -1.71363    -2.75284     1.61972
H     -1.79124    -2.29135     2.46822
