 24
-909.9788709819668
O     -1.61600     0.55861     0.14540
H     -1.91193    -0.35855    -0.01618
O     -1.51605     1.14274    -1.15937
H     -0.87171     0.52701    -1.59348
O      0.37003    -0.46927    -1.92656
H      0.94699    -0.74587    -1.18980
O      1.17704     0.45919    -2.64956
H      1.26032     1.19469    -2.00488
O      1.63134    -1.33364     0.36356
H      1.41943    -0.80620     1.16383
O      0.97200    -2.56648     0.64557
H      1.68442    -3.09385     1.01957
O     -2.31826    -2.04832     0.33300
H     -3.13133    -2.34520     0.75144
O     -1.45574    -1.91971     1.45590
H     -0.61484    -2.22760     1.06662
O      0.45053     1.11580     1.63581
H     -0.35503     0.93887     1.10310
O      0.55076    -0.05741     2.43355
H     -0.35159    -0.41318     2.42990
O      1.33673     2.31707    -0.73008
H      1.18839     2.03013     0.18669
O      0.26925     3.24227    -0.93274
H     -0.46031     2.63910    -1.15654
