 36
-1364.983925623687
O     -2.16161     0.70598     1.15735
H     -1.75908    -0.07835     0.72181
O     -1.78967     1.75804     0.26419
H     -2.36038     1.60800    -0.52216
O     -2.99459     1.52906    -2.08456
H     -3.77834     1.91533    -2.48589
O     -1.98147     2.45516    -2.48397
H     -1.29764     1.82548    -2.80161
O      1.34128    -3.52106    -0.45123
H      0.50345    -3.34147     0.01826
O      2.27798    -2.95530     0.47022
H      2.56882    -2.18353    -0.05018
O      1.20278    -1.39116    -1.97061
H      1.26965    -2.34580    -1.76700
O      2.31177    -0.91154    -1.19816
H      1.90948    -0.18550    -0.67425
O      0.03005    -1.53300     3.05182
H     -0.25779    -0.65761     3.36759
O      1.32980    -1.17945     2.55899
H      1.62772    -2.00971     2.15992
O      0.52394     1.80748     2.75934
H      0.46616     2.68396     3.15664
O     -0.60051     1.12697     3.31165
H     -1.22879     1.13923     2.55507
O      0.98159     1.83619    -3.00610
H      0.93887     2.04637    -2.05423
O     -0.00320     0.80642    -3.11311
H      0.53514     0.00715    -2.98300
O      1.15738     0.92379     0.33790
H      1.03668     1.15307     1.28670
O      0.75710     2.13679    -0.30388
H     -0.20222     2.10606    -0.11362
O     -1.09432    -1.34426    -0.10695
H     -0.25136    -1.21492    -0.57905
O     -0.82398    -2.47931     0.71933
H     -0.62421    -2.05908     1.59102
