 32
-1213.3099076161316
O      0.72850    -2.61075     1.23580
H     -0.11304    -2.43011     1.70824
O      1.56416    -1.57775     1.76176
H      2.24927    -1.52433     1.06037
O      3.07338    -0.91274    -0.31920
H      3.00827     0.05919    -0.35449
O      2.92486    -1.27409    -1.69036
H      1.96896    -1.41294    -1.75973
O     -3.12498     0.52761    -0.33373
H     -3.03520    -0.32768     0.12858
O     -2.52089     0.22690    -1.60058
H     -1.94794     1.00176    -1.70349
O     -1.38719     2.67928    -1.51268
H     -2.16545     3.20511    -1.31009
O     -0.62291     2.85468    -0.32304
H      0.27959     2.89399    -0.68923
O      1.93807     2.52911    -1.05199
H      2.64089     3.15967    -1.23159
O      2.53699     1.74623    -0.02685
H      1.81278     1.65954     0.62737
O     -1.10146    -1.98723    -1.33580
H     -1.67915    -1.26401    -1.65431
O      0.04563    -1.21197    -0.94822
H      0.37462    -1.75689    -0.19961
O     -2.55141    -1.83232     0.95626
H     -1.98399    -2.16661     0.23575
O     -1.59553    -1.55205     1.97948
H     -1.40571    -0.60599     1.82141
O      0.68893     0.97396     1.73592
H      0.91243     0.02666     1.85397
O     -0.72591     0.92081     1.55279
H     -0.85270     1.58221     0.84473
