 36
-1364.9766924427145
O     -2.44870     0.99223    -0.61814
H     -2.34855     0.20695    -0.04252
O     -1.54551     0.66413    -1.68162
H     -1.96940    -0.11461    -2.10103
O     -2.08537    -1.36213     0.68250
H     -2.01081    -1.93314    -0.10241
O     -0.74191    -1.39630     1.17500
H     -0.58493    -0.45884     1.42825
O      2.54858     0.77407     1.61499
H      1.89105     1.29527     2.11860
O      2.82580    -0.27970     2.52469
H      3.76586    -0.14981     2.66612
O      0.36270     2.06702     2.54620
H     -0.23873     2.83018     2.47558
O     -0.28901     1.22964     1.59711
H      0.06217     1.58169     0.74864
O      0.63078    -1.26406    -2.59142
H      1.12438    -0.61168    -2.04087
O      1.47561    -2.40916    -2.52649
H      1.60147    -2.48529    -1.56096
O     -1.47780     3.69933     0.29392
H     -2.00767     2.91633     0.07538
O     -1.60414     3.70832     1.71556
H     -2.02207     4.55892     1.87601
O      1.56555    -2.22420     0.13377
H      0.66216    -2.11118     0.48978
O      2.26980    -2.68788     1.28215
H      2.40604    -1.84284     1.72930
O      0.80876     1.63602    -0.77813
H      0.03066     1.32244    -1.28595
O      1.69905     0.52695    -0.94051
H      2.08531     0.45720    -0.04801
O     -2.41795    -1.65459    -2.75061
H     -2.12600    -1.98734    -3.60469
O     -1.59222    -2.37314    -1.83098
H     -0.69377    -2.01349    -2.06148
