 36
-1364.9736192090033
O      2.72221     1.14610     1.31942
H      3.38900     0.86812     0.66953
O      2.95574     0.25866     2.41796
H      2.30285    -0.43409     2.23239
O     -2.57015     0.40651     0.97471
H     -2.39832    -0.52658     0.71787
O     -3.50382     0.79538    -0.04647
H     -2.95844     1.37996    -0.58744
O     -0.41599    -1.58342     1.98965
H     -0.10609    -2.26794     1.37325
O      0.28126    -0.47999     1.40857
H     -0.02372     0.28713     1.94503
O      3.33195    -1.86016    -0.75533
H      3.77000    -2.20982    -1.53745
O      3.50088    -0.45156    -0.92877
H      2.57364    -0.17660    -1.10770
O     -2.79455    -1.31405    -1.67752
H     -3.55912    -0.81757    -1.36174
O     -2.34649    -1.83047    -0.41113
H     -1.55131    -2.33639    -0.66997
O      0.35495     2.41584     0.98384
H      1.23755     2.02494     1.16790
O     -0.40762     1.97853     2.11283
H     -1.29338     1.87827     1.72735
O      0.13052    -0.15359    -1.98554
H     -0.60416     0.48548    -1.93572
O      0.99463     0.35467    -0.96991
H      0.60262    -0.03404    -0.14826
O     -1.16681     2.33466    -1.23531
H     -0.55041     2.48286    -0.48126
O     -1.93514     3.53534    -1.20771
H     -1.68806     3.92266    -2.05244
O      0.86138    -2.76649    -0.05702
H      1.72640    -2.42715    -0.34262
O      0.07177    -2.76417    -1.25308
H      0.23424    -1.87906    -1.63354
