 20
-758.312206105099
O      0.05045    -1.26738     1.16299
H     -0.17002    -0.62262     1.86912
O     -1.21911    -1.41128     0.51188
H     -1.43611    -0.47308     0.32231
O      1.30718     0.91470    -0.99948
H      1.33848     0.13402    -1.58265
O      1.91927     0.41789     0.19649
H      1.33797    -0.33512     0.42254
O      0.89390     1.42310     2.88090
H      1.30804     1.29389     2.01233
O     -0.38724     0.83570     2.67868
H     -0.97157     1.59021     2.53731
O     -0.42002    -1.61264    -2.17069
H     -0.60741    -1.87819    -1.25207
O      1.00354    -1.50938    -2.13583
H      1.26058    -2.09627    -2.85357
O     -1.87662     1.01880    -1.51892
H     -1.46787     0.22390    -1.88974
O     -1.23969     1.13041    -0.25240
H     -0.28984     1.23610    -0.49621
