 32
-1213.3122339570693
O      2.80418     0.39614     1.54509
H      3.68566     0.54030     1.90290
O      2.78602     1.33123     0.47185
H      1.83503     1.57211     0.48087
O     -1.86219     0.48833    -0.75035
H     -2.47843     0.31855     0.00393
O     -1.46340    -0.84874    -1.09144
H     -1.53803    -0.82219    -2.07045
O     -0.24169    -1.56973    -3.74669
H      0.37572    -0.84694    -3.56614
O     -1.46355    -0.83404    -3.74377
H     -1.91547    -1.18155    -4.51734
O      0.17465     1.76252     0.43578
H     -0.56161     1.33572    -0.05813
O     -0.31918     1.84319     1.77170
H      0.05057     1.03599     2.16952
O      2.64605     0.66087    -2.45754
H      2.90141     1.04127    -1.60736
O      1.27578     0.36736    -2.21288
H      1.35660    -0.35747    -1.55747
O      0.51075    -1.71977     0.46751
H     -0.20406    -1.43044    -0.14575
O      1.70687    -1.31003    -0.20499
H      2.16751    -0.78339     0.47882
O     -1.05013    -1.13023     3.13664
H     -0.95796    -1.36059     4.06431
O      0.24330    -0.62007     2.83372
H      0.44578    -1.15578     2.03316
O     -2.98621     1.42609     1.92237
H     -2.05583     1.70116     1.82089
O     -2.92642     0.04337     1.58626
H     -2.30017    -0.32619     2.23173
