 24
-909.9726525961645
O     -2.04673    -0.37362    -1.64116
H     -2.39043     0.07291    -0.84132
O     -1.10688     0.60066    -2.11383
H     -0.38258     0.01402    -2.36891
O     -0.21418    -1.93880    -0.38954
H     -1.03207    -1.65791    -0.83749
O      0.74789    -1.32101    -1.26829
H      1.48089    -1.13592    -0.65155
O     -0.19136    -0.10109     1.56220
H     -0.17169    -0.90532     0.99090
O      0.40856    -0.56569     2.76901
H      1.32867    -0.32560     2.59551
O     -3.43484    -0.34768     1.34497
H     -4.09654     0.18613     1.79299
O     -2.61087     0.67933     0.78521
H     -1.75792     0.50813     1.24363
O      2.86048    -0.83414     0.32233
H      3.72918    -0.64375    -0.05080
O      2.63112     0.30103     1.15618
H      2.04421     0.83490     0.58575
O      1.77559     1.67575    -1.75484
H      1.89658     2.60709    -1.96744
O      1.06137     1.76550    -0.52599
H      0.16763     1.49135    -0.79875
