 20
-758.2985470517765
O      0.87697    -2.30121     1.49633
H      1.05444    -3.19359     1.80554
O     -0.53606    -2.35484     1.28164
H     -0.74851    -1.41629     1.39405
O     -0.85906     0.50073     0.77820
H     -0.02001     0.53683     0.27117
O     -0.55358     1.32013     1.91806
H     -1.17177     2.04495     1.75529
O      1.04193    -1.09038    -0.87927
H      1.11186    -1.57786    -0.03621
O      1.50459     0.20798    -0.47262
H      2.05694     0.43214    -1.24298
O      2.70987     0.44042    -2.88805
H      2.31485     1.02220    -3.54598
O      2.44624    -0.85782    -3.44047
H      1.82161    -1.19872    -2.78388
O     -3.55810     1.67259     0.50669
H     -2.81869     1.04836     0.47732
O     -3.00638     2.67565     1.37195
H     -3.54674     2.56729     2.16146
