 24
-909.9780903900854
O     -1.34958    -1.08867     2.52808
H     -0.43210    -0.95626     2.25009
O     -1.99271     0.08200     2.01982
H     -2.09957    -0.13323     1.07324
O     -1.15186    -1.28040    -1.16347
H     -0.43590    -1.48371    -0.53561
O     -1.67664    -0.04988    -0.65695
H     -0.91174     0.55016    -0.75468
O      0.59766     1.33634    -0.64991
H      0.80071     1.43120     0.30477
O      1.70799     0.56966    -1.12744
H      1.41792     0.35970    -2.04052
O      0.96971    -0.39614    -3.50928
H      1.17495    -0.24607    -4.43651
O     -0.44235    -0.13973    -3.49199
H     -0.70518    -0.66576    -2.71036
O      1.14471    -1.60425     0.27079
H      1.56334    -0.80958    -0.12954
O      1.23356    -1.30048     1.65327
H      1.67926    -2.08194     1.98818
O      0.89423     1.61188     1.95590
H      1.38057     2.14966     2.58857
O     -0.39324     2.22867     1.98108
H     -0.96363     1.43257     2.07428
