 32
-1213.3110206421804
O      2.26693     0.15386     2.64247
H      3.05981     0.43359     3.10762
O      2.80879    -0.54336     1.51917
H      2.25859    -1.34143     1.52579
O     -1.43739    -0.92570     0.82472
H     -0.70700    -0.27063     0.74559
O     -1.26493    -1.71306    -0.35561
H     -0.49062    -2.24707    -0.09944
O     -2.46307     0.39692    -1.52067
H     -2.22368    -0.48263    -1.16400
O     -1.43366     0.57594    -2.50458
H     -0.91024     1.29721    -2.11368
O      0.35871     0.93311     1.00344
H      1.07069     0.85839     1.67930
O     -0.21603     2.21979     1.25101
H     -1.18441     2.01393     1.22544
O      0.26558     2.40682    -1.40258
H      0.12680     2.56516    -0.45012
O      1.55448     1.78472    -1.37112
H      2.00039     2.21483    -2.10769
O      1.46241    -0.85802    -1.18767
H      1.57522     0.11228    -1.09891
O      1.13557    -1.00178    -2.56419
H      0.21634    -0.69359    -2.57510
O      1.96123    -3.03984     0.15881
H      1.84065    -2.29151    -0.46846
O      0.81186    -2.80476     0.97826
H      0.74513    -3.63141     1.46535
O     -3.38175     0.78668     1.56369
H     -2.74846     0.06399     1.40266
O     -2.81363     1.81471     0.75301
H     -2.86868     1.41307    -0.13666
