 40
-1516.6451170965618
O      1.19768     0.64375     2.67165
H      2.09791     0.24434     2.62615
O      0.38935    -0.51945     2.88623
H     -0.49726    -0.10112     2.96643
O      2.57792     0.05414    -1.60195
H      2.64205    -0.88391    -1.35478
O      1.16992     0.18261    -1.74489
H      0.95124     0.78841    -0.99819
O     -0.11111     2.39382    -3.37175
H      0.65657     1.86372    -3.12182
O     -1.02573     2.06480    -2.33563
H     -1.48582     1.28013    -2.68882
O     -1.92822     0.63763     2.36187
H     -1.71605     1.22211     1.60923
O     -2.81406    -0.31861     1.79221
H     -2.19800    -0.97282     1.39931
O     -3.55249     1.71879    -0.65066
H     -4.33823     2.22823    -0.87187
O     -4.06674     0.38954    -0.55336
H     -3.86937     0.19949     0.38278
O     -0.81275     2.00837     0.33362
H     -0.98846     2.17551    -0.61760
O      0.59084     1.74499     0.30503
H      0.75138     1.46017     1.23293
O      3.49504    -0.47217     2.03131
H      3.45092    -1.28611     1.49555
O      4.12078     0.45464     1.15473
H      3.38280     0.75176     0.60568
O     -1.28097    -2.03947     0.45110
H     -1.26804    -1.85374    -0.51359
O      0.11969    -2.05877     0.71663
H      0.21316    -1.50392     1.52532
O      2.36934    -2.50341    -0.57933
H      1.45808    -2.45729    -0.22413
O      3.07774    -2.74927     0.62660
H      3.51713    -3.58332     0.44228
O     -2.01259    -0.41419    -2.61633
H     -2.68802    -0.42546    -1.92099
O     -1.02094    -1.29512    -2.09183
H     -0.21867    -0.73522    -2.09475
