 28
-1061.6479839502033
O      0.88799    -1.09344    -3.33454
H      0.04516    -1.43070    -2.98016
O      0.64218     0.31598    -3.14911
H      1.35144     0.51076    -2.50659
O     -0.43908    -1.51268     1.57108
H     -1.13792    -0.87145     1.33377
O     -0.07753    -2.02934     0.29128
H      0.84489    -1.74335     0.20343
O      0.36623     0.45259     3.63494
H      0.06550    -0.35239     3.18191
O     -0.82282     1.22751     3.65894
H      1.27222     1.13892     1.81480
O     -1.65201     0.08220    -1.85957
H     -0.91904     0.45181    -2.39747
O     -1.35039    -1.31183    -1.94241
H     -0.97952    -1.50918    -1.05867
O     -2.18843     0.49845     1.46176
H     -1.79500     0.96428     2.22148
O     -1.98509     1.45075     0.42403
H     -2.00181     0.88376    -0.37354
O      0.65269     2.14914     0.31252
H     -0.31318     2.00601     0.36806
O      1.14716     0.92460     0.87528
H     -1.07401     1.20282     4.58775
O      2.43939    -1.34681    -1.03767
H      2.16498    -1.62533    -1.92399
O      2.48612     0.07360    -1.25506
H      2.10520     0.40416    -0.41494
