 36
-1364.9720321904827
O      1.08641     2.70622     0.05594
H      0.16909     2.84008    -0.24062
O      0.90172     2.40587     1.44336
H      1.37608     1.56729     1.51654
O     -0.62318    -1.01043    -0.63988
H     -0.62034    -1.98009    -0.65353
O     -1.09290    -0.68695    -1.94684
H     -1.73895     0.01096    -1.71520
O      0.08983    -1.72466     3.58145
H      0.52060    -1.17574     2.89788
O     -1.16103    -2.02732     2.93599
H     -0.87938    -2.74132     2.34092
O      0.95304    -0.47709     1.37972
H      0.22649    -0.53976     0.72105
O      1.96165    -1.24102     0.72341
H      2.04016    -0.72906    -0.12187
O     -1.63570     1.07719     1.55839
H     -0.91940     1.63540     1.90293
O     -2.41104     0.76132     2.71334
H     -2.12965    -0.15322     2.86768
O     -2.25724     1.50264    -1.02016
H     -2.17818     1.41039    -0.04998
O     -1.30048     2.52622    -1.29174
H     -0.92639     2.20969    -2.13465
O      1.83941     0.46553    -1.21570
H      1.66602     1.37575    -0.88649
O      2.89212     0.64333    -2.15509
H      2.37236     0.60683    -2.96872
O      0.50982     0.55553    -3.72163
H      0.00261     0.03310    -3.07052
O     -0.14390     1.81434    -3.60940
H     -0.55084     1.91063    -4.47654
O      0.64418    -3.51944     0.14303
H      1.20592    -2.79519     0.49949
O     -0.13457    -3.89900     1.27236
H      0.39026    -4.60259     1.66878
