 28
-1061.6453098506395
O      0.57456    -1.94817    -2.64836
H      0.32678    -1.92002    -3.57864
O      1.69762    -1.06265    -2.60642
H      1.28499    -0.23998    -2.25949
O      0.87978     0.56129     1.82822
H      0.22860     1.29902     1.76377
O      1.79545     0.89633     0.78691
H      2.26769     0.04927     0.67479
O     -1.12330     2.27092     1.71654
H     -1.96460     1.77668     1.67321
O     -1.24002     3.20093     0.63741
H      0.93585     1.21842    -0.61674
O     -0.49957    -1.61037     1.03457
H      0.02863    -0.84980     1.35584
O     -0.88431    -1.16952    -0.27027
H     -0.25934    -1.63992    -0.84483
O     -3.41238     0.02770     0.44896
H     -2.76995    -0.69485     0.42010
O     -3.18886     0.49891     1.78063
H     -4.07428     0.47229     2.15542
O     -0.86222     1.27030    -1.21469
H     -1.03347     0.39495    -0.81512
O      0.53398     1.14521    -1.51101
H     -1.13006     2.61316    -0.13558
O      2.50491    -2.39892    -0.18211
H      2.61000    -2.22708    -1.12918
O      3.25429    -1.30430     0.35343
H      3.85067    -1.74866     0.96243
