 28
-1061.6353200679248
O      1.00885     0.96293    -2.16203
H      1.48309     0.13194    -1.97269
O     -0.29762     0.70305    -1.63194
H     -0.18997     0.99472    -0.70644
O      2.29805    -0.30520     1.39383
H      2.63352    -1.00498     0.81299
O      1.26733    -1.01530     2.10467
H      0.45923    -0.61127     1.73476
O     -1.16489     1.43052     1.79232
H     -0.31507     1.86067     1.57355
O     -0.94066     0.17814     1.11766
H     -2.07529    -2.80498    -0.87796
O      2.50003    -1.22449    -1.78725
H      2.85610    -1.84051    -2.43686
O      2.09860    -2.09006    -0.72682
H      1.12787    -2.10913    -0.86019
O     -3.51501    -0.01772     0.52163
H     -3.94772     0.24442    -0.29975
O     -4.23518     0.73435     1.50796
H     -3.53023     1.31726     1.82256
O     -0.51762    -1.94380    -1.43675
H     -0.61718    -0.97530    -1.57276
O     -1.48678    -2.19543    -0.42447
H     -1.85532    -0.05024     0.85699
O      2.05088     2.60146    -0.29409
H      1.74485     2.18554    -1.11833
O      1.17127     1.96237     0.63247
H      1.71171     1.19012     0.91297
