 40
-1516.6425747432386
O      2.20962     0.64277    -1.65522
H      1.92468    -0.29387    -1.54068
O      1.08540     1.18678    -2.33010
H      1.37655     1.20018    -3.24725
O     -1.29526     0.93144     2.92092
H     -0.77926     1.68879     3.23481
O     -0.61363     0.78630     1.67375
H     -1.27857     0.33143     1.11297
O     -1.66701     0.32396    -1.44256
H     -1.55581     1.24507    -1.10328
O     -2.07203    -0.35232    -0.24499
H     -2.21941    -1.27074    -0.56374
O     -0.67268    -2.22130     3.09381
H     -0.88665    -1.29144     3.24612
O     -0.28018    -2.16331     1.72225
H      0.67786    -2.31235     1.74889
O      0.66613     3.31846     1.80314
H      1.41417     2.75475     1.52586
O      0.51829     2.92425     3.16592
H      0.53390     3.77786     3.60759
O      1.97707     0.26512     1.52166
H      1.01213     0.45681     1.60375
O      2.46073     1.45403     0.90267
H      2.44320     1.20565    -0.04266
O     -1.10705     2.76356    -0.43785
H     -0.82614     3.02893     0.45265
O     -0.09209     3.37390    -1.24321
H      0.35076     2.58674    -1.60410
O     -2.04807    -2.89482    -1.15844
H     -1.80235    -2.78251    -2.09727
O     -0.80664    -3.34771    -0.60853
H     -0.90909    -3.08555     0.32341
O      1.52091    -1.81619    -0.95656
H      0.73349    -2.39041    -0.90423
O      2.19881    -2.06690     0.27156
H      2.23837    -1.16479     0.65782
O     -1.40699    -2.10612    -3.64295
H     -0.96004    -2.59887    -4.33740
O     -0.39676    -1.16172    -3.28227
H     -0.89656    -0.60693    -2.64849
