 16
-606.6343563582806
O     -1.06616     1.40395     0.31343
H     -0.72969     2.24122    -0.03608
O     -0.14595     0.49836    -0.31573
H      0.44234     0.25431     0.42001
O      1.39893    -1.17717     1.46814
H      0.87998    -1.93549     1.14203
O      0.84522    -1.02143     2.77607
H      1.62442    -1.15675     3.32243
O      0.42401     2.53074    -2.46578
H      0.34007     1.68897    -1.99762
O     -0.24180     3.40154    -1.53905
H     -1.04815     3.61600    -2.01953
O     -1.27824    -2.32708    -0.31155
H     -0.98930    -1.40351    -0.35034
O     -0.08732    -2.98611     0.12594
H      0.22112    -3.41756    -0.67739
