 40
-1516.6436922159528
O     -0.43000     1.50232    -2.72224
H     -1.24040     2.03640    -2.72734
O     -0.06336     1.66948    -1.35068
H      0.81671     1.22390    -1.32604
O     -3.59246     1.42260     1.06398
H     -4.07638     1.40387     0.22845
O     -2.32123     1.86646     0.60592
H     -1.80953     1.01950     0.59099
O      2.48633    -3.50542     2.33687
H      1.71732    -3.81598     1.82039
O      2.99262    -2.52929     1.42167
H      3.87952    -2.86082     1.24231
O     -1.05123    -0.42619     0.52976
H     -0.92745    -0.91486    -0.31536
O     -0.72301    -1.37859     1.53800
H      0.08723    -0.96899     1.91076
O     -2.65855     2.99940    -1.77023
H     -2.46477     2.70872    -0.85185
O     -3.96192     2.43836    -1.95024
H     -4.49364     3.23499    -2.04026
O      2.24200     0.46863    -0.93422
H      2.29571     0.54425     0.04616
O      2.32267    -0.94546    -1.13394
H      1.64863    -1.04525    -1.83821
O      0.33841     3.45257     0.67899
H      0.20337     2.85053    -0.07703
O      0.05792     2.59436     1.78670
H     -0.88988     2.73617     1.93064
O      0.30017    -3.73151     0.74727
H     -0.20962    -2.92705     0.98908
O      0.87100    -3.37315    -0.51209
H      1.59124    -2.76362    -0.26093
O      1.63021    -0.40018     2.35065
H      2.29203    -1.05033     2.04616
O      2.07024     0.80099     1.71277
H      1.32274     1.41349     1.88064
O      0.18178    -1.10729    -2.68395
H     -0.23068    -0.22912    -2.80952
O     -0.75202    -1.76030    -1.82066
H     -0.20278    -2.51039    -1.50884
