 32
-1213.3088495302857
O      2.31850     1.17926     2.75806
H      3.22077     1.25134     3.08289
O      2.45076     1.77327     1.46502
H      1.65374     2.35017     1.44001
O     -0.46682    -2.09709    -0.68243
H      0.34096    -2.12404    -1.22317
O     -1.44439    -1.73021    -1.66002
H     -1.27080    -0.76434    -1.74108
O     -0.76531     0.81453    -1.60278
H      0.08551     0.71909    -1.11745
O     -1.56860     1.56799    -0.69362
H     -2.10709     0.87605    -0.25987
O      0.03327     2.81817     1.00921
H     -0.54969     2.54906     0.26451
O     -0.71162     2.36025     2.13941
H     -0.54622     1.40735     2.09963
O      1.52854     0.18635    -0.50192
H      1.96366     0.69263     0.21688
O      2.18517     0.69567    -1.66464
H      2.05323    -0.05084    -2.26281
O      1.32466    -2.27075    -2.69734
H      1.73895    -3.11185    -2.92271
O      0.51189    -1.99629    -3.83922
H     -0.36999    -2.12659    -3.45287
O     -0.29837    -0.63623     1.69131
H     -0.30233    -1.19525     0.89285
O      0.85652    -1.10345     2.38844
H      1.35822    -0.27723     2.47775
O     -3.28335    -0.90203     1.66257
H     -2.39948    -0.85679     2.05446
O     -3.02676    -0.39125     0.35166
H     -2.96671    -1.19006    -0.19705
