 40
-1516.6408574117002
O      0.33763     3.13288     0.88461
H      1.28124     3.35220     0.78029
O     -0.20231     3.61214    -0.35360
H     -1.13862     3.61951    -0.12144
O      1.48697    -1.20811    -2.15413
H      1.84446    -1.76597    -1.42976
O      1.91206     0.09607    -1.74634
H      1.22314     0.66102    -2.14796
O     -0.02295     1.86535    -2.36936
H      0.01371     2.54051    -1.66122
O     -1.41077     1.51983    -2.34371
H     -1.38127     0.55827    -2.55774
O     -3.14343    -1.83375     2.27237
H     -2.18572    -2.02584     2.21745
O     -3.10923    -0.49732     2.78001
H     -3.83029    -0.51628     3.41544
O     -1.62342    -1.66108    -1.13971
H     -2.00779    -0.87481    -0.69448
O     -1.18125    -1.13330    -2.38837
H     -0.21510    -1.29005    -2.33341
O      0.21098     0.19785     0.95826
H     -0.16015     1.10268     0.90398
O      1.62031     0.39317     0.89225
H      1.78681     0.25913    -0.06935
O      3.06974     2.47426     1.75361
H      2.60049     1.65922     1.48720
O      2.99965     3.19547     0.51692
H      3.70913     3.83576     0.63086
O     -2.81302     0.29062     0.25000
H     -2.95467     0.15564     1.21111
O     -2.16869     1.57082     0.19648
H     -1.97151     1.58625    -0.76151
O      2.67976    -4.06094    -0.54524
H      3.49922    -4.15451    -0.05210
O      2.24831    -2.77919    -0.09151
H      1.39186    -2.99214     0.34392
O     -0.51439    -2.19899     1.85465
H     -0.17000    -1.34326     1.52274
O     -0.30092    -3.06850     0.74265
H     -0.86677    -2.67177     0.04916
