 32
-1213.31353275083
O      1.88886     1.28960    -0.22165
H      2.02820     0.76157    -1.02999
O      0.71836     2.02043    -0.61998
H      0.22974     2.11325     0.21956
O     -0.04297    -2.27278    -1.95758
H     -0.96671    -2.15139    -2.25193
O     -0.19648    -2.62027    -0.58234
H     -0.71346    -1.87277    -0.21621
O     -2.37931    -0.05452    -2.64731
H     -1.42739     0.14434    -2.80522
O     -2.42881    -1.46113    -2.83782
H     -2.80183    -1.53522    -3.71970
O      1.32964    -0.06175     4.04259
H      1.40202    -0.47941     3.15826
O      1.47532     1.31233     3.66252
H      2.32655     1.54591     4.04808
O      1.26859    -0.01587    -2.49362
H      0.84223    -0.86130    -2.24057
O      0.13548     0.77815    -2.86286
H      0.18329     1.44420    -2.14661
O      2.21941    -1.67026     0.94069
H      1.58075    -2.22193     0.46630
O      1.33779    -0.68879     1.47175
H      1.60063     0.11501     0.96746
O     -0.78870     1.10979     2.31776
H     -0.04078     1.31127     2.91643
O     -0.92469     2.33576     1.58258
H     -1.74599     2.11293     1.12202
O     -1.62549    -0.60010     0.47154
H     -1.15892    -0.24037     1.25128
O     -2.33375     0.57243     0.04064
H     -2.55370     0.32520    -0.87235
