 24
-909.9863369697548
O     -0.77872     0.81054     1.64803
H     -0.56960     1.49963     0.98488
O     -2.19965     0.75158     1.61876
H     -2.34197     0.30773     0.76035
O      0.66011    -0.82584    -2.12814
H      0.02063    -1.39946    -1.66650
O     -0.17388     0.32110    -2.33741
H      0.35876     1.03048    -1.93977
O      2.73100    -0.23254    -0.51495
H      2.07229    -0.45491    -1.20105
O      1.87339     0.17976     0.54236
H      1.48020    -0.66148     0.85231
O     -1.49758    -1.63328    -0.80710
H     -1.33149    -1.76205     0.14213
O     -2.22648    -0.39898    -0.81410
H     -1.67144     0.10469    -1.43811
O     -0.62246    -1.79186     1.76317
H     -0.64320    -0.82139     1.94391
O      0.77766    -2.01806     1.61250
H      1.00345    -2.46848     2.43236
O      1.05632     2.23308    -0.84434
H      1.49589     1.61121    -0.21573
O     -0.00316     2.74277    -0.03701
H      0.29584     3.63686     0.15595
