 16
-606.6337071083974
O     -1.94266    -0.71182     1.22254
H     -2.22732     0.18010     1.45114
O     -0.67378    -0.84398     1.87458
H     -0.19123    -0.06703     1.53567
O      0.33612     1.47909     0.83365
H      0.84185     1.13056     0.07025
O      1.37081     1.96800     1.68983
H      1.18650     2.91151     1.67892
O      1.37168     0.06240    -1.28518
H      0.58560    -0.51033    -1.41136
O      2.29309    -0.86304    -0.69822
H      3.02106    -0.80454    -1.32245
O     -0.98534    -1.23884    -1.19492
H     -1.34571    -1.10098    -0.28784
O     -1.79604    -0.34448    -1.96450
H     -2.28004    -0.97367    -2.50657
