 32
-1213.311626454391
O      2.34711    -1.88092     0.45357
H      3.00408    -1.65900    -0.22811
O      2.49989    -0.77315     1.34433
H      2.17034    -0.04148     0.78573
O      0.22351    -2.38285    -1.15430
H      0.81365    -2.23316    -0.38871
O      0.34294    -1.14105    -1.85173
H      1.17162    -1.25430    -2.34953
O     -2.21265    -1.31946    -0.24484
H     -1.64257    -1.57314    -0.98402
O     -2.59563     0.01834    -0.59332
H     -3.04016     0.27162     0.24967
O     -1.11974     2.23169    -0.93835
H     -1.61909     1.38747    -0.92918
O     -0.88540     2.48047     0.44392
H     -0.46092     1.65903     0.74964
O      1.46342     1.83259    -1.21953
H      0.58627     2.26925    -1.24840
O      1.14712     0.80478    -0.28148
H      0.67419     0.16479    -0.85850
O      3.81575    -0.93035    -1.58817
H      4.68146    -0.88770    -2.00607
O      2.96631    -0.31530    -2.54804
H      2.74265     0.51923    -2.10148
O     -1.20454    -1.16116     2.24777
H     -1.51304    -1.30694     1.33319
O     -0.26143    -0.09860     2.06721
H      0.59030    -0.53588     2.21141
O     -3.46754     0.66076     1.81266
H     -2.88241     0.24125     2.46521
O     -3.36771     2.05679     2.09764
H     -2.65276     2.33260     1.50535
