 40
-1516.6397267459872
O      1.83561    -1.36969    -1.04942
H      0.88639    -1.15610    -1.19786
O      2.22153    -0.21526    -0.28350
H      2.45323     0.42784    -0.98006
O     -3.05516    -0.40590     1.06812
H     -2.65648    -0.92672     0.34132
O     -2.57259    -1.00061     2.26023
H     -1.68382    -0.62050     2.31471
O      0.39728     2.13489     0.22686
H     -0.57022     2.18276     0.41165
O      0.96053     2.85506     1.32376
H      1.16722     2.13630     1.93613
O     -0.84352     1.73880    -2.86227
H      0.07131     1.93689    -3.10627
O     -1.21750     2.98622    -2.26311
H     -1.88696     2.68979    -1.62511
O      0.24644    -0.33879     1.67127
H      0.59377     0.09666     0.86598
O      1.28163    -0.20001     2.63456
H      1.88564    -0.91869     2.38228
O      1.75960     2.68371    -2.06274
H      1.34682     2.53245    -1.18521
O      2.81101     1.71945    -2.07283
H      3.59520     2.27567    -2.04071
O     -2.24409     2.06378     0.78894
H     -2.58816     1.15285     1.00524
O     -3.03938     2.36478    -0.35792
H     -3.61668     3.04546    -0.00286
O     -0.58675    -0.46593    -1.33079
H     -0.90535     0.29531    -1.87463
O     -1.73835    -1.30184    -1.13712
H     -1.27213    -2.13581    -0.91512
O      2.41218    -3.05397     1.87895
H      1.87046    -3.73193     2.30066
O      2.38796    -3.49352     0.51555
H      2.37204    -2.64308     0.02889
O     -0.33143    -3.36922    -0.20301
H      0.55124    -3.77202    -0.11361
O     -0.73633    -3.19319     1.15341
H     -0.34287    -2.32867     1.35439
