 16
-606.6371090645971
O     -0.83388     0.89158     0.98016
H     -1.02588     1.14304     0.04798
O     -0.22255     2.07100     1.49176
H      0.65813     2.01247     1.11096
O      0.73242    -0.68052     2.51668
H      0.13028    -0.06615     2.05025
O      0.73689    -1.79335     1.61651
H     -0.01807    -2.31653     1.90549
O     -0.15665     1.20397    -2.32941
H      0.16669     0.43409    -1.82404
O     -1.30507     1.57474    -1.55579
H     -2.03343     1.34537    -2.14120
O      0.44665    -1.82501    -1.59639
H      1.16412    -1.92604    -2.22646
O      0.96017    -0.75157    -0.80830
H      0.91083    -1.13079     0.09956
