 40
-1516.6408739488852
O      1.89284    -1.25582    -0.81484
H      1.01752    -0.84430    -0.98567
O      2.68803    -0.11499    -0.49791
H      2.69357     0.39152    -1.32757
O     -1.76088     0.40851     1.45278
H     -1.82076    -0.08281     0.60594
O     -0.60312    -0.19429     2.03210
H      0.11834     0.44057     1.82787
O      1.13011     2.51072     0.70409
H      0.52147     2.90349     1.36131
O      1.52805     1.32574     1.40608
H      2.00587     0.81796     0.71353
O     -0.82236     2.70214    -1.55965
H      0.00225     2.87342    -2.03445
O     -1.01322     3.96997    -0.92687
H     -1.31122     3.68670    -0.04735
O     -2.79030    -3.20900     0.52118
H     -3.35006    -3.48431     1.25343
O     -1.81429    -4.25533     0.51278
H     -1.01744    -3.73732     0.75784
O      2.05361     3.04622    -1.75625
H      1.89790     2.79895    -0.82253
O      2.84648     1.96897    -2.23321
H      3.71160     2.37955    -2.32301
O     -1.67466     3.05546     1.57890
H     -1.73334     2.07163     1.56945
O     -0.65022     3.24157     2.54707
H     -1.06168     3.86519     3.15244
O     -0.32079    -0.00513    -1.41495
H     -0.59361     0.92760    -1.27496
O     -1.42734    -0.75852    -0.90644
H     -1.17587    -1.65262    -1.22039
O      0.12400    -2.53506     1.05453
H     -0.21483    -1.72576     1.49902
O      1.47042    -2.60194     1.52765
H      1.91326    -2.16634     0.78136
O     -0.35207    -3.03588    -1.82622
H      0.53694    -3.22564    -1.49101
O     -0.83929    -4.31441    -2.24130
H     -1.38560    -4.54511    -1.47445
