 16
-606.6389997425835
O     -1.33960    -0.82735     1.24274
H     -2.00415    -1.22372     1.81577
O     -1.75681     0.54195     1.23086
H     -0.90373     0.97925     1.36594
O      0.85217     1.81491     1.10791
H      0.99748     1.56230     0.16906
O      1.66031     0.80708     1.73786
H      2.52608     1.22406     1.73952
O      1.36419     0.58319    -1.18365
H      0.52343     0.15166    -1.43483
O      2.11731    -0.53062    -0.68336
H      1.88139    -0.48834     0.25400
O     -1.12362    -0.42368    -1.44636
H     -1.33454    -0.65687    -0.52185
O     -1.37063    -1.64588    -2.14462
H     -2.08921    -1.37616    -2.72396
