 40
-1516.640459012539
O      0.27175     2.21310    -2.74780
H      1.12340     1.81139    -2.51888
O      0.35966     3.53287    -2.21589
H      0.33558     3.36171    -1.26330
O      1.49404    -0.08674    -1.61826
H      2.01655    -0.58024    -0.94942
O      0.49972    -1.02686    -2.03781
H     -0.31604    -0.56453    -1.74158
O     -1.21133     1.36557     2.28739
H     -0.52865     1.57384     1.61638
O     -2.32976     1.00195     1.47264
H     -2.85314     1.81969     1.41485
O     -1.98557     1.49498    -1.57542
H     -1.17252     1.75250    -2.07545
O     -1.52794     0.27472    -0.96816
H     -1.78844     0.41920    -0.03197
O     -3.78244     3.07864     0.10209
H     -3.43058     2.62390    -0.67832
O     -5.17834     3.07482    -0.18160
H     -5.34913     4.01025    -0.33035
O     -0.01579    -1.08826     1.33539
H     -0.17681    -1.92620     0.84590
O     -0.38061    -1.42144     2.67227
H     -0.90207    -0.63274     2.87458
O      2.53805    -0.40550     1.23687
H      1.60527    -0.67558     1.40940
O      2.92802    -1.35544     0.23380
H      2.99355    -2.18696     0.75922
O      0.84965    -3.39760    -0.92805
H      0.77244    -2.51358    -1.36465
O     -0.24678    -3.35713    -0.01549
H     -0.94700    -3.79710    -0.50492
O      3.12600    -4.36971     0.56997
H      2.30524    -4.26934     0.06999
O      2.77838    -3.55196     1.68830
H      3.32899    -3.90974     2.39097
O      1.93506     2.10661     0.32790
H      2.22790     1.24365     0.69308
O      0.51635     1.93161     0.26755
H      0.42315     1.19265    -0.35963
