 24
-909.9774038029136
O      1.08885     0.23934     2.35059
H      1.16042     1.09954     1.90689
O     -0.32095     0.25942     2.63038
H     -0.56612    -0.68034     2.52222
O      0.76672     1.51209    -2.13166
H     -0.11765     1.19861    -2.39277
O      1.56921     0.42724    -2.57769
H      2.11418     0.85630    -3.24318
O      2.56490    -0.94729    -0.41876
H      2.32128    -0.41332    -1.18552
O      1.26313    -1.24442     0.10218
H      1.26981    -0.75171     0.94995
O     -1.29754    -0.99988    -1.40908
H     -0.35184    -0.92670    -1.21029
O     -1.68564     0.33919    -1.70605
H     -1.65220     0.77311    -0.82756
O     -2.18976    -1.35441     1.06555
H     -1.96457    -1.31931     0.11075
O     -1.12581    -2.09726     1.66383
H     -0.49666    -2.25161     0.94389
O     -1.10548     1.68122     0.53958
H     -1.11825     1.16562     1.36918
O      0.29517     2.00258     0.50325
H      0.52403     1.79284    -0.41596
