 20
-758.2983045063964
O     -1.37077    -1.65080     0.91256
H     -1.96929    -1.74466     0.15783
O     -0.68635    -0.44072     0.58592
H      0.08071    -0.76305     0.07470
O      1.18073    -0.89388    -2.69708
H      1.69625    -0.47919    -1.99219
O      0.09128    -1.43770    -1.94146
H     -0.65183    -0.88861    -2.23697
O      0.95565     1.11585     2.44996
H      0.25324     0.70236     1.92303
O      0.39151     2.39876     2.73451
H      0.24465     2.33168     3.68359
O      2.20020    -0.34269     0.02791
H      2.80546    -1.06479     0.23445
O      2.98073     0.81966     0.30997
H      2.54202     1.12479     1.11982
O     -2.26283     0.33777    -1.60895
H     -1.85876     0.45774    -0.73832
O     -3.48774    -0.30604    -1.23075
H     -4.13757     0.33969    -1.52719
