 36
-1364.9756031934623
O      1.52043     2.53141     1.36835
H      1.98549     2.26755     0.54757
O      2.03738     1.63349     2.36198
H      1.96582     0.75618     1.93278
O     -1.55230    -2.10746     2.16182
H     -0.93452    -2.62734     1.61819
O     -1.17716    -0.79164     1.74838
H     -1.14809    -0.30327     2.58878
O     -1.15161     2.26747     2.32017
H     -1.03869     3.17666     2.62321
O     -0.49100     1.49248     3.32238
H      0.45555     1.64136     3.10439
O      1.72271    -0.81902    -0.11583
H      1.19758    -1.58130    -0.43449
O      1.43791    -0.76381     1.27891
H      0.45920    -0.71916     1.29936
O     -0.78371     1.53262    -0.24904
H     -0.92583     1.80691     0.68393
O     -1.96055     1.98888    -0.90831
H     -2.14892     1.19391    -1.43753
O     -2.16290    -1.40009    -0.94376
H     -2.13549    -0.81009    -0.17309
O     -2.05672    -0.47654    -2.02745
H     -1.14955    -0.64844    -2.36136
O      1.28535     1.60278    -1.88896
H      0.53624     1.74140    -1.26572
O      2.40832     1.54972    -1.00367
H      2.36657     0.61178    -0.73583
O      0.49715    -0.76922    -2.83228
H      0.89431     0.10158    -2.57315
O      0.48972    -0.68601    -4.25588
H      1.17638    -1.32377    -4.46324
O     -0.09979    -3.64340     0.46973
H     -0.29905    -4.52020     0.13007
O      0.03685    -2.87895    -0.71734
H     -0.85109    -2.46522    -0.80944
