 24
-909.9720478496836
O     -2.11298    -0.67012    -0.95375
H     -2.06550    -0.73669     0.02894
O     -2.51918    -1.98924    -1.32751
H     -1.67391    -2.35517    -1.62013
O      2.21987    -1.84086     1.00558
H      2.24018    -2.53980     1.66402
O      1.28079    -0.95280     1.60670
H      1.60039    -0.08690     1.27543
O      0.46679    -0.43333    -1.57791
H     -0.48786    -0.34120    -1.35560
O      0.63140    -1.85623    -1.49431
H      1.08815    -1.94107    -0.64503
O     -0.51429     3.16296    -0.40517
H      0.41078     2.95220    -0.59514
O     -1.02447     1.82573    -0.37156
H     -1.75673     1.85331    -1.00016
O      1.88373     1.67435    -0.71142
H      1.44447     0.84812    -1.00236
O      2.21386     1.36893     0.64052
H      3.14750     1.60306     0.67837
O     -1.40885    -0.68833     1.59190
H     -0.46782    -0.92995     1.66516
O     -1.37696     0.67999     2.02323
H     -1.20354     1.14314     1.17950
