 20
-758.3005526815732
O     -0.72589    -2.17034     0.34302
H     -0.51960    -1.74130    -0.49959
O     -1.11177    -1.07027     1.16921
H     -2.07616    -1.04245     1.05585
O      0.23268     2.18137     0.61074
H      1.11186     1.83581     0.82508
O     -0.31354     1.08583    -0.10706
H     -0.46593     0.42883     0.60237
O      3.82606     0.65396     0.47397
H      4.31221     0.13093     1.11863
O      2.48201     0.26616     0.77699
H      2.24206    -0.22972    -0.03168
O      1.89465    -0.88406    -1.59438
H      2.39654    -0.53804    -2.33980
O      0.54524    -0.61926    -1.98017
H      0.34068     0.15965    -1.42526
O     -3.05865     0.22631    -0.50010
H     -2.40509     0.93612    -0.46632
O     -3.54326     0.28107     0.84755
H     -4.45936     0.02985     0.71286
