 24
-909.9775379746078
O     -2.47026    -2.17036    -0.43807
H     -2.78704    -2.93323     0.05505
O     -2.03901    -1.33085     0.62629
H     -2.17724    -0.44357     0.23948
O     -0.25659    -1.12376    -1.62236
H     -0.87953    -1.76646    -1.24772
O      0.91740    -1.38110    -0.84104
H      1.56197    -0.80795    -1.30548
O      2.72955     0.22117    -1.98729
H      3.67531     0.25107    -1.81170
O      2.29075     1.52347    -1.59618
H      2.09327     1.37201    -0.64513
O     -2.16985     1.08573    -0.54007
H     -2.70702     1.43326    -1.25769
O     -0.84826     1.36410    -0.99732
H     -0.55969     0.46998    -1.31069
O     -0.66571     0.17935     2.92789
H     -0.31819     1.00542     2.54965
O      0.10990    -0.76017     2.16236
H     -0.58829    -1.13790     1.60394
O      1.66699     0.95407     0.93588
H      1.29825     0.11933     1.30309
O      0.59482     1.85501     1.24717
H      0.04262     1.75617     0.45064
