 36
-1364.9727386222767
O      2.25081     2.71978     0.90525
H      2.63533     3.51691     1.28241
O      3.27704     1.74862     1.13084
H      2.73548     0.98930     1.42336
O     -2.77109    -2.34653    -0.75426
H     -2.04870    -1.72923    -0.98164
O     -2.59319    -2.51304     0.65250
H     -2.55020    -1.59576     0.98903
O     -1.67313    -0.26563     1.80055
H     -1.24216     0.57745     1.52480
O     -0.69660    -0.75390     2.73573
H     -0.81307    -1.72274     2.67853
O      1.76950    -0.45677     1.73588
H      0.88577    -0.37600     2.15867
O      1.44129    -1.08704     0.49049
H      1.01296    -1.91812     0.76674
O     -0.26522     1.88047     1.16290
H      0.65546     2.19421     1.06464
O     -0.94709     2.58410     0.12400
H     -1.15480     1.85755    -0.49745
O     -0.83402    -0.58997    -1.31524
H     -0.05809    -0.24993    -0.83214
O     -1.53447     0.61447    -1.63498
H     -1.29268     0.72769    -2.58118
O      1.38900     1.28639    -1.46051
H      1.82471     2.02358    -1.00397
O      2.47286     0.36663    -1.65672
H      2.32402    -0.23089    -0.90602
O      0.08201     2.23509    -3.60880
H      0.64719     1.81162    -2.93489
O     -0.62146     1.08311    -4.08706
H     -1.04604     1.43203    -4.87487
O     -0.15257    -3.33471     1.08878
H     -1.05169    -3.09047     0.74350
O     -0.41991    -3.40420     2.49315
H     -0.90651    -4.22983     2.57836
