 20
-758.3088292486714
O     -0.53667    -0.70206     1.59904
H     -1.35195    -0.28855     1.24929
O     -0.24293    -1.63385     0.53393
H      0.66611    -1.85663     0.81068
O      2.30948    -1.14471     1.11282
H      2.43259    -0.66546     0.27541
O      2.21795    -0.05294     2.03894
H      1.27869    -0.10201     2.26702
O      0.62023    -0.32728    -1.67609
H      0.28702    -0.84129    -0.91319
O      1.75124     0.35344    -1.11648
H      1.29625     1.08831    -0.67294
O     -0.00180     2.28763    -0.59794
H      0.21038     3.11457    -1.04294
O     -1.02346     1.76418    -1.45942
H     -0.54152     0.99986    -1.83601
O     -3.08449    -0.74577    -0.62650
H     -2.52005    -1.48308    -0.36113
O     -2.63237     0.27570     0.26802
H     -2.25485     0.92427    -0.34932
