 40
-1516.6377846924795
O     -0.30346     0.42277     2.01397
H      0.33971    -0.30442     2.12488
O      0.34789     1.48805     2.72268
H     -0.30347     2.18834     2.52396
O      2.09807    -0.99744    -1.57009
H      2.32784    -1.92214    -1.40816
O      1.26726    -0.79194    -0.42453
H      1.66991     0.01121    -0.02627
O     -0.16369     2.50726    -3.43954
H      0.50318     2.91650    -3.99995
O      0.61131     1.53268    -2.74552
H     -0.03489     0.79934    -2.68338
O     -1.54863     2.88396     1.44396
H     -1.24488     3.08469     0.53935
O     -2.46959     1.81222     1.17152
H     -1.88223     1.04636     1.28843
O     -1.59265     3.03481    -1.23990
H     -1.10283     2.88686    -2.06805
O     -2.73851     2.18679    -1.43981
H     -2.93640     2.00086    -0.50045
O      1.19318     2.59086    -0.30042
H      1.05074     2.10543    -1.13244
O      1.88103     1.61281     0.49782
H      1.41945     1.69988     1.35543
O      1.34657    -1.71532     2.37458
H      1.79088    -2.34133     1.75976
O      0.90908    -2.59172     3.40266
H      1.49349    -2.32304     4.11582
O     -1.62189    -3.14502    -0.57799
H     -1.69170    -2.19183    -0.79599
O     -0.61638    -3.08213     0.43905
H     -1.11257    -3.15931     1.26294
O      1.80306    -3.65728    -0.44872
H      0.88873    -3.43971    -0.15752
O      2.51325    -3.54974     0.78280
H      2.69610    -4.47004     1.00229
O     -1.49204    -0.05589    -2.21777
H     -2.09742     0.69746    -2.05858
O     -1.34771    -0.50841    -0.86889
H     -0.36742    -0.57029    -0.75083
