 24
-909.9724731493325
O      1.08000    -0.48271     1.60349
H      1.18651     0.10579     0.84048
O     -0.28042    -0.25635     1.97805
H     -0.74754    -0.93761     1.46422
O      0.57590    -2.14386    -0.95267
H     -0.34169    -2.01401    -0.65468
O      1.14748    -2.78963     0.19352
H      1.25689    -2.02857     0.79351
O      1.86273    -0.02270    -2.02050
H      1.51557    -0.85405    -1.63197
O      2.41634     0.61814    -0.86817
H      3.35762     0.59727    -1.06671
O     -0.74633     1.23453    -2.07347
H      0.15605     0.91081    -2.21224
O     -0.85102     0.99173    -0.66597
H     -0.87080     1.88484    -0.26695
O     -1.73804    -1.90349     0.34418
H     -2.33380    -2.63683     0.53074
O     -2.60371    -0.93915    -0.27114
H     -1.95438    -0.21667    -0.42244
O     -1.04676     3.08051     0.99227
H     -0.87270     4.02394     1.02257
O      0.13740     2.55101     1.59306
H     -0.23230     1.75639     1.99790
