 40
-1516.635138963375
O      1.07834     3.75850    -1.44882
H      0.26764     3.52419    -0.97041
O      1.97713     2.75333    -0.97144
H      1.88639     2.03994    -1.62718
O      0.16495     0.05288     1.50460
H      0.77026     0.78666     1.69799
O      0.07056    -0.62192     2.76116
H     -0.90441    -0.70299     2.81227
O      2.30958     0.07204    -2.05273
H      1.88516    -0.74663    -2.37985
O      1.82873     0.00074    -0.69961
H      2.64781     0.11775    -0.19059
O     -2.04696     0.69433    -1.12030
H     -2.27938    -0.21684    -0.85853
O     -0.68827     0.56502    -1.50295
H     -0.20682     0.52988    -0.64843
O     -1.17351     2.72648     1.12623
H     -1.66707     3.40908     1.58953
O     -1.33840     3.13296    -0.23531
H     -1.75747     2.33479    -0.61312
O      3.48393     0.83209     1.15030
H      4.29701     1.29937     1.36348
O      2.48013     1.79197     1.45941
H      2.33167     2.22630     0.58546
O     -2.57786    -0.75809     2.35858
H     -2.68325    -1.32924     1.57819
O     -3.03424     0.50071     1.85996
H     -2.19723     0.96792     1.72561
O     -2.61855    -3.05649    -0.84666
H     -1.93746    -3.03545    -1.53722
O     -2.10228    -2.06730     0.02994
H     -1.24330    -2.45905     0.30826
O      1.29003    -2.59522     0.64296
H      1.03388    -1.81364     1.16568
O      0.09870    -3.38371     0.67811
H      0.23593    -3.98875     1.41748
O      0.96639    -2.21397    -2.42919
H      1.09535    -2.53350    -1.52452
O     -0.42623    -1.89548    -2.44606
H     -0.44371    -0.94684    -2.19054
