 36
-1364.9793842186914
O      1.27793     0.11553     3.11271
H      1.32852     0.66549     2.30260
O      1.83772    -1.10563     2.64562
H      2.40635    -1.35335     3.37961
O     -3.16474     0.06505     0.54947
H     -2.68461    -0.63356     0.06097
O     -2.07634     0.92646     0.90691
H     -1.93798     0.69397     1.85162
O     -1.41410     0.15631     3.42280
H     -0.44459     0.06603     3.47742
O     -1.57435     1.51342     3.83747
H     -2.41021     1.44888     4.30771
O      2.04601    -1.47715    -1.26145
H      1.93815    -0.63516    -0.78009
O      1.41581    -1.18304    -2.50271
H      0.45904    -1.27071    -2.28546
O     -1.85497     1.50843    -1.63076
H     -2.15534     1.51769    -0.70139
O     -0.51234     1.97790    -1.44219
H     -0.15117     1.90522    -2.34318
O      1.74750     0.92078    -0.18430
H      1.75963     1.61716    -0.86095
O      0.93007     1.47663     0.83560
H      0.02998     1.29956     0.49543
O     -1.78401    -1.71526    -0.89888
H     -0.99385    -1.94879    -0.35672
O     -1.20274    -1.06551    -2.02994
H     -1.49863    -0.13201    -1.92155
O      1.96245     1.37808    -2.92741
H      1.83531     0.40351    -2.91279
O      0.85146     1.77658    -3.72030
H      1.24849     2.44770    -4.28275
O      0.17287    -2.18114     0.81284
H      0.81317    -1.90514     1.49487
O      0.82145    -3.30193     0.22011
H      1.30624    -2.83398    -0.48725
