 32
-1213.3183342673708
O      0.88078     0.59795     3.31920
H      1.31640     0.76810     4.16113
O      0.62548     1.91132     2.83741
H      1.28306     1.97327     2.10723
O     -1.64723    -1.46716     0.99175
H     -2.31310    -1.50717     0.27626
O     -0.70752    -2.41238     0.44618
H      0.12808    -2.06890     0.82747
O     -2.70541    -1.60121    -1.45405
H     -2.64957    -0.69849    -1.81091
O     -1.61488    -2.22034    -2.14757
H     -1.28417    -2.78789    -1.44007
O      1.43735    -1.32355     1.55577
H      1.27358    -0.54304     2.11782
O      2.39286    -0.85589     0.60746
H      1.94494    -1.06945    -0.24264
O      1.49905     1.89989    -0.42854
H      0.63168     1.56242    -0.11649
O      2.29622     1.79407     0.75104
H      2.58076     0.85751     0.70046
O     -0.89059     1.18040    -2.38993
H     -0.95716     1.90887    -3.01866
O     -2.24176     1.03261    -1.93699
H     -2.16094     1.34804    -1.02414
O      1.13531    -1.19691    -1.67919
H      0.22698    -1.17649    -2.02539
O      1.83072    -0.25425    -2.48066
H      1.77171     0.54846    -1.94100
O     -1.65241     1.77263     1.30401
H     -1.02435     1.92122     2.02844
O     -0.81245     0.97389     0.47121
H     -1.05160     0.04405     0.73004
