 16
-606.6382199224375
O     -2.20773    -0.17024     1.16209
H     -3.13630     0.02700     1.32172
O     -1.67780     1.12838     0.87793
H     -0.79969     1.02746     1.27147
O      1.87324    -0.33849     0.88915
H      1.69305     0.34359     0.21848
O      0.87136    -0.01180     1.86648
H      0.42930    -0.86133     1.96062
O      0.76633     1.17990    -1.12671
H      0.13148     0.46351    -1.33786
O      1.72527     1.01945    -2.17092
H      1.66984     1.87810    -2.59972
O     -0.85055    -0.96334    -1.01927
H     -1.42545    -0.78247    -0.25203
O     -0.07481    -2.07785    -0.55802
H      0.77249    -1.65179    -0.36330
