 36
-1364.9781381969258
O      0.31820     0.97070     1.52702
H     -0.05244     0.22726     2.06245
O      1.71648     0.68420     1.47636
H      1.88031     0.84968     0.53701
O     -0.13637    -1.70027    -0.82382
H      0.01555    -0.79734    -1.16909
O     -1.55851    -1.71163    -0.66084
H     -1.65207    -1.65466     0.31173
O     -1.90066    -1.24430     2.01129
H     -2.26356    -0.33035     1.98295
O     -0.74816    -1.07218     2.84247
H     -0.18265    -1.81873     2.54492
O      3.61502    -1.34101    -1.06667
H      3.23114    -1.59472    -0.21291
O      4.13759    -0.05667    -0.73280
H      5.02831    -0.10950    -1.09262
O     -2.67944     1.26083     1.56899
H     -2.35237     1.78801     0.80306
O     -3.93723     0.78623     1.08865
H     -4.49217     1.00533     1.84104
O     -0.23775     2.75874    -0.33946
H     -0.05514     2.17753     0.42705
O     -1.60920     2.43433    -0.58895
H     -1.52972     1.78958    -1.32013
O      1.59272     0.62048    -1.46478
H      2.50576     0.38760    -1.70437
O      1.30563     1.74243    -2.29937
H      0.78630     2.27100    -1.66494
O     -2.11785    -0.33767    -3.06672
H     -2.12454    -1.02693    -2.38631
O     -1.16884     0.54347    -2.44413
H     -0.52071     0.71640    -3.14304
O      2.22899    -1.93442     1.45982
H      2.00157    -1.00706     1.66643
O      0.94406    -2.55456     1.43145
H      0.61584    -2.31635     0.53464
