 36
-1364.9833926853382
O      2.12555     1.72811     0.57213
H      2.00461     2.09053    -0.31770
O      3.32790     0.96394     0.40438
H      3.19981     0.29126     1.09150
O     -2.01464    -0.08574    -1.48349
H     -1.19252    -0.61402    -1.57466
O     -1.44543     1.13837    -1.03158
H     -1.12767     0.91566    -0.12807
O      1.25428    -0.59287     2.75741
H      1.21030    -1.24760     3.46225
O      2.23001    -1.14354     1.87880
H      1.65130    -1.41337     1.13577
O      2.89731    -0.42408    -1.86462
H      3.22998     0.11142    -1.11440
O      2.98567     0.50151    -2.95234
H      2.07861     0.85155    -2.93213
O     -1.90114    -2.48547     0.69415
H     -2.75406    -2.02216     0.66401
O     -1.51442    -2.33123     2.05911
H     -1.53386    -1.36202     2.18020
O     -0.65487     0.73833     1.45748
H      0.11422     0.29122     1.87382
O     -1.71065     0.32730     2.32525
H     -2.50192     0.63987     1.84597
O      1.04356     2.90761    -2.01333
H      1.49659     3.32175    -2.75247
O      0.58010     1.70065    -2.63061
H     -0.22814     1.51048    -2.08878
O     -3.80594    -0.52790     0.42663
H     -3.26950    -0.23390    -0.34345
O     -4.03927     0.71261     1.07697
H     -4.89126     0.54413     1.48497
O      0.37265    -1.13254    -1.38225
H      1.31624    -0.90331    -1.59037
O      0.47815    -1.62691    -0.04271
H     -0.41562    -2.00894     0.12984
