 32
-1213.3107869166324
O      0.14836     0.87201     0.93409
H      0.68611     0.50856     0.19592
O      1.09060     1.70028     1.60373
H      1.25001     1.14853     2.38191
O     -0.06464    -2.21037    -1.85632
H      0.42231    -2.41213    -1.03195
O     -1.39100    -2.06867    -1.32344
H     -1.59718    -1.14532    -1.57802
O      0.08707     4.32160    -1.06007
H     -0.79423     4.69116    -0.95045
O     -0.19938     2.92324    -1.01729
H      0.11394     2.66708    -0.13430
O     -1.74457     0.52614    -1.58354
H     -1.43827     1.42339    -1.36605
O     -3.11373     0.54085    -1.17661
H     -3.03569     0.12525    -0.29927
O      1.99793     1.14605    -2.21435
H      1.41952     1.92113    -2.17267
O      1.28451     0.25795    -1.35856
H      0.81621    -0.34375    -1.96716
O      2.66156    -2.08656    -0.11244
H      2.56649    -1.41802    -0.80366
O      1.32140    -2.16101     0.36857
H      1.35683    -1.62868     1.19201
O      1.42893    -0.95214     2.74055
H      1.96780    -1.46198     3.35463
O      0.14810    -0.93147     3.38836
H     -0.41579    -1.31301     2.68714
O     -2.13767    -0.41241     1.19160
H     -1.35306     0.16962     1.15803
O     -1.48640    -1.68318     1.32049
H     -1.48601    -2.00694     0.39191
