 32
-1213.3153652179253
O      2.46058     0.48868    -1.65954
H      2.60648     1.02678    -0.86097
O      1.94895    -0.71976    -1.08628
H      1.08753    -0.79679    -1.53716
O      1.37399    -0.99929     1.48825
H      1.71460    -0.86922     0.57226
O      0.69036     0.23645     1.70893
H     -0.23013     0.00443     1.45804
O     -0.53615    -2.18186    -1.47281
H     -0.56152    -2.52988    -0.56809
O     -1.78472    -1.49177    -1.57589
H     -1.47903    -0.68649    -2.03690
O      1.83100     3.10201     0.40604
H      2.19181     3.69160     1.07414
O      2.48634     1.86791     0.67962
H      1.79484     1.37374     1.18220
O     -0.27776    -3.05704     1.11214
H      0.34833    -2.39018     1.46709
O     -1.25127    -3.10909     2.14212
H     -1.55335    -4.01857     2.06929
O     -0.35031     0.64955    -2.12790
H     -0.49763     1.18957    -1.32378
O      0.36555     1.58300    -2.93004
H      1.27060     1.34295    -2.67277
O     -0.66170     2.29373    -0.09378
H      0.20563     2.72121     0.04868
O     -1.28845     2.48185     1.17199
H     -1.84898     1.69575     1.21110
O     -1.77574    -0.63059     1.36845
H     -1.89088    -1.53757     1.71418
O     -2.95904    -0.41765     0.60166
H     -2.68819    -0.81896    -0.24488
