 36
-1364.97369182562
O      2.56985     0.88589     1.29380
H      2.57179     1.47253     0.51865
O      1.68986    -0.14735     0.84097
H      2.28723    -0.90110     0.68937
O     -1.13580    -0.92941     2.09869
H     -1.95960    -0.51970     1.76020
O     -0.48029     0.21650     2.66124
H      0.43786     0.04855     2.40055
O      1.23465     3.18416    -0.01213
H      0.63758     2.61005    -0.53900
O      2.48519     2.84690    -0.60020
H      2.98184     3.65683    -0.45992
O      0.33547     0.23234    -1.43033
H      0.77635     0.13648    -0.55437
O     -0.36204     1.47319    -1.28299
H     -1.24629     1.14481    -1.00387
O     -0.52386    -1.25186    -3.45870
H     -0.27358    -0.63306    -2.74214
O     -0.12520    -2.50925    -2.91291
H      0.76405    -2.33152    -2.57624
O     -2.56649     0.15828    -0.58693
H     -2.36483    -0.80176    -0.60806
O     -3.05622     0.35366     0.74015
H     -2.75804     1.26777     0.89214
O     -1.12598     3.61065     1.90173
H     -0.37541     3.89951     1.36900
O     -1.38687     2.34599     1.30842
H     -0.93455     1.72091     1.91434
O      2.55814    -2.81102     0.48543
H      3.31519    -3.25887     0.09826
O      1.77010    -2.56986    -0.67882
H      0.87267    -2.77386    -0.33411
O     -0.71627    -2.79237     0.15778
H     -0.85977    -2.16706     0.89449
O     -1.69637    -2.36259    -0.79206
H     -1.20890    -2.49265    -1.64169
