 40
-1516.64765026256
O      3.40669     0.68717     0.15635
H      3.52825    -0.22973    -0.14486
O      2.17823     1.01992    -0.49417
H      1.84942     1.76739     0.06336
O     -2.28017    -1.71778    -2.93548
H     -2.62656    -1.70973    -3.83205
O     -0.89132    -1.92207    -3.15655
H     -0.52288    -1.06815    -2.85074
O      1.11767     2.93352     1.05135
H      0.35385     3.41861     0.68228
O      0.46548     2.32625     2.17798
H      1.03538     1.54214     2.33126
O      2.99769    -2.77837     1.00801
H      2.60234    -3.59874     0.69420
O      3.10517    -1.99568    -0.17825
H      2.15506    -1.96659    -0.46448
O     -3.41331    -0.28754    -0.61476
H     -3.04546    -0.40958    -1.50304
O     -3.71377     1.10528    -0.61080
H     -3.28677     1.38783     0.20996
O     -1.33540    -0.10482     1.96889
H     -0.48439    -0.34990     2.36334
O     -1.26837    -0.91951     0.79372
H     -2.17083    -0.79297     0.40695
O      0.13866     0.34921    -2.11435
H      0.99422     0.52253    -1.66636
O     -0.75204     1.09338    -1.28867
H     -0.66412     0.63307    -0.43439
O      0.57285    -2.01811    -0.70596
H     -0.10815    -1.64775    -0.09629
O      0.04025    -3.31758    -0.95265
H     -0.32290    -3.15037    -1.83615
O      1.29247    -0.96744     2.03175
H      1.97890    -1.62378     1.79603
O      2.05613     0.17202     2.45828
H      2.67574     0.30882     1.71388
O     -1.37860     3.49435     0.30428
H     -1.42855     2.88549    -0.45031
O     -2.16860     2.81836     1.28731
H     -1.48981     2.60077     1.94512
