 40
-1516.6403494628755
O      1.73587     2.27938    -0.55188
H      0.81342     2.35037    -0.20636
O      2.44306     1.89578     0.62823
H      2.84312     2.72497     0.90913
O     -1.86456     2.91427     0.50932
H     -2.23606     2.91655     1.41159
O     -0.58314     2.33041     0.74450
H     -0.84582     1.42544     1.03935
O     -1.99088     2.36084     3.88694
H     -1.93439     1.42538     3.61461
O     -3.01933     2.82192     3.00187
H     -3.43433     3.50262     3.53736
O      0.96126     0.02732     1.87669
H      1.56685     0.68263     1.47554
O      1.83200    -1.03821     2.24549
H      1.96128    -1.46597     1.37436
O     -1.79633     0.11245     1.50467
H     -1.56518    -0.75166     1.10558
O     -1.43239    -0.12861     2.87259
H     -0.45594    -0.14469     2.75441
O     -1.19149    -2.15413     0.22426
H     -0.30064    -2.48284    -0.03687
O     -1.98351    -2.48553    -0.90980
H     -2.82436    -2.64531    -0.47451
O      2.13719     0.03869    -2.05637
H      2.00191     0.92174    -1.65799
O      1.17831     0.02670    -3.12035
H      0.35382     0.23960    -2.62890
O     -0.75124     0.31820    -1.37150
H     -1.23480    -0.51800    -1.23492
O     -1.77968     1.24078    -1.75925
H     -1.82278     1.78798    -0.96168
O      2.22107    -1.95072    -0.25643
H      2.13359    -1.23514    -0.92644
O      1.23755    -2.90169    -0.67819
H      1.55607    -3.14792    -1.57200
O      2.10499    -3.26075    -3.19572
H      2.20787    -3.96901    -3.83586
O      0.86322    -2.68479    -3.59562
H      1.09500    -1.73808    -3.56573
