 20
-758.3007865173691
O      0.00993    -2.41112     1.98110
H      0.26298    -3.02477     2.67704
O      0.13020    -1.15459     2.65727
H     -0.28658    -0.58739     1.99287
O     -0.97428     0.09598     0.20363
H     -0.37085    -0.45560    -0.35050
O     -0.44117     1.40641    -0.04572
H     -1.20415     1.80141    -0.50392
O      1.70734    -1.90464    -0.05924
H      1.04620    -2.08496     0.63287
O      0.88176    -1.29464    -1.06652
H      1.53181    -0.67400    -1.45052
O      2.39735     1.78197    -1.10038
H      1.52864     1.57740    -0.72655
O      2.77775     0.50405    -1.61078
H      3.51400     0.26487    -1.03810
O     -3.66258     1.01976    -0.79634
H     -3.03711     0.44005    -0.33870
O     -2.87967     2.21774    -0.88819
H     -3.35892     2.81693    -0.30584
