 36
-1364.9769091165872
O      3.98592     1.03830     2.53130
H      4.41378     1.38866     1.73777
O      3.54495    -0.23708     2.05275
H      2.58916    -0.18065     2.19351
O     -1.74172    -1.69368     2.58620
H     -2.18785    -2.08586     3.34562
O     -2.05888    -0.30845     2.74476
H     -2.73508    -0.20176     2.04409
O      4.45662     1.04502    -0.65512
H      3.66902     1.45919    -1.03579
O      4.01967    -0.31975    -0.58963
H      3.91748    -0.43294     0.37668
O     -0.87578     1.57229    -1.70308
H     -1.36704     0.79396    -2.04707
O     -1.54554     1.86774    -0.47311
H     -0.92425     1.54554     0.21447
O     -1.98802    -0.61683    -2.78481
H     -1.63649    -1.45041    -2.43349
O     -3.40326    -0.84505    -2.75654
H     -3.67648    -0.23130    -2.05147
O     -3.59026    -0.33299     0.53684
H     -3.01217    -0.96691     0.07681
O     -3.87854     0.60184    -0.49842
H     -3.10361     1.20364    -0.45221
O      1.60329     0.99288    -1.11274
H      0.73750     1.33080    -1.44857
O      1.71739    -0.24912    -1.81523
H      2.59873    -0.52133    -1.47455
O      0.80159    -0.12156     1.16535
H      1.16282     0.19118     0.31054
O      0.02558     1.02269     1.54763
H     -0.58655     0.61473     2.18920
O     -0.08800    -2.18628    -1.16418
H      0.51601    -1.45561    -1.38843
O     -1.05338    -1.55909    -0.32280
H     -0.63529    -1.56478     0.55606
