 36
-1364.9683545410346
O      0.45119     0.77825     0.88096
H      1.25018     0.30593     0.59590
O      0.97270     1.92712     1.55929
H      0.13773     2.24289     1.94516
O     -1.89111    -0.34607     3.01340
H     -1.00735    -0.75536     2.93024
O     -2.50368    -0.88339     1.82083
H     -2.55900    -0.05125     1.30736
O     -0.06560     0.07286    -3.83595
H     -0.33189    -0.41002    -3.03300
O      1.35765     0.02075    -3.75284
H      1.57965    -0.57123    -4.48000
O     -2.37872    -0.02896    -1.61936
H     -2.90809    -0.58411    -1.03741
O     -1.07421    -0.54406    -1.39293
H     -0.67148     0.15908    -0.83989
O     -0.57987     2.33210    -0.95299
H      0.19897     2.39009    -0.38061
O     -0.03441     2.58653    -2.25379
H     -0.47754     1.90874    -2.77908
O      1.98674    -0.73069    -1.23952
H      1.80964    -0.36978    -2.13311
O      1.62993    -2.10202    -1.42218
H      1.01634    -2.23398    -0.68330
O     -1.68854     2.14375     2.10024
H     -1.76232     1.38269     2.71001
O     -2.36178     1.58981     0.96065
H     -1.82314     1.94079     0.22982
O      3.41251    -1.91699     0.92862
H      3.28771    -1.59963     0.02263
O      2.62482    -0.94245     1.62305
H      3.28069    -0.43437     2.11585
O      0.17039    -1.79517     2.26192
H      1.08630    -1.53231     2.04959
O     -0.29874    -2.26007     0.98101
H     -1.22531    -1.96478     1.02840
