 32
-1213.3081816117583
O      2.01855     1.44282     1.86433
H      1.29105     1.80780     2.38803
O      1.25366     0.61044     0.99405
H      1.52852     0.91335     0.10631
O      0.95148    -1.51008    -2.12174
H      1.00635    -1.90794    -1.23494
O     -0.46752    -1.57928    -2.32022
H     -0.61362    -0.83075    -2.94967
O     -0.66911     0.72371    -3.57535
H      0.01626     1.32564    -3.23774
O     -1.84724     1.21035    -2.93762
H     -1.67229     1.02004    -1.99740
O     -1.56742    -0.62231    -0.02877
H     -1.18007    -1.03988    -0.82652
O     -1.37836     0.76786    -0.31708
H     -1.31282     1.15288     0.58411
O      1.99530     0.92151    -1.60057
H      1.63012     0.08967    -1.97421
O      1.49768     1.92440    -2.47891
H      2.30439     2.21134    -2.91651
O      0.90338    -2.48085     0.37442
H      0.59787    -3.35103     0.65084
O      1.42319    -1.94449     1.59384
H      1.37727    -0.97403     1.40726
O     -0.86805    -2.15770     3.02578
H      0.06537    -2.10417     2.77228
O     -1.30830    -0.86606     2.62007
H     -1.45443    -0.97085     1.65841
O     -0.51568     1.60940     3.03762
H     -0.69622     0.64400     2.97747
O     -1.40176     2.08563     2.02770
H     -2.16756     2.37751     2.53353
