 32
-1213.3069580438148
O      1.74919     0.43743    -0.48009
H      1.10984     0.00483    -1.08730
O      2.87400    -0.43487    -0.57652
H      2.78367    -0.91252     0.26213
O      0.50795    -2.47236     1.51351
H     -0.31095    -2.12192     1.90977
O      1.46288    -1.42783     1.72982
H      0.89655    -0.62294     1.68434
O     -0.12745    -0.38486    -2.13700
H     -0.31876    -1.31375    -1.91103
O     -1.09825     0.33695    -1.37009
H     -0.79634     1.24374    -1.54918
O     -0.11607     3.86392     0.31194
H      0.39779     3.90521    -0.50715
O      0.65811     2.89723     1.02044
H      1.06624     3.41090     1.72636
O     -1.42008    -3.46696    -0.82967
H     -1.20287    -4.40510    -0.83439
O     -0.14607    -2.86333    -1.02776
H      0.16688    -2.70618    -0.10306
O      0.35247     2.35728    -2.36359
H      0.61053     2.06550    -3.24450
O      1.59430     2.76156    -1.78110
H      1.80162     1.98663    -1.21179
O     -0.29693     0.48887     1.51237
H     -0.03111     1.39181     1.22921
O     -1.21585     0.74641     2.57542
H     -2.00370     0.32085     2.20640
O     -2.88329    -0.91699     0.73532
H     -2.17522    -0.64591     0.12934
O     -2.36634    -2.11577     1.30805
H     -2.20973    -2.67342     0.52416
