 20
-758.3127999737872
O     -2.14968    -1.43816    -0.18366
H     -2.13348    -0.62541     0.36570
O     -1.56305    -2.41307     0.67360
H     -0.66917    -2.07085     0.82469
O      2.25535     1.83865     0.22253
H      3.09047     2.27906     0.40958
O      1.36576     2.54922     1.09406
H      0.51058     2.37707     0.65370
O      1.03184    -0.33728     1.12871
H      1.64909     0.35816     0.81357
O      1.40635    -1.49106     0.37440
H      1.04936    -1.29218    -0.50690
O     -0.39720     0.22003    -2.10702
H     -0.82490     0.24736    -2.96888
O     -0.18019    -1.17486    -1.91725
H     -0.98489    -1.40774    -1.38954
O     -0.97279     1.65016     0.06618
H     -0.80932     1.03509    -0.67466
O     -1.36766     0.77555     1.12739
H     -0.50639     0.36271     1.33122
