 36
-1364.9704108113667
O      0.89268     2.21111    -0.33903
H      1.19845     1.92456     0.54481
O      1.90231     1.68038    -1.20063
H      1.41785     0.90851    -1.54448
O     -2.69865     0.47449    -0.32865
H     -2.43895     0.92053    -1.16558
O     -2.03370     1.30863     0.62831
H     -2.32609     0.91936     1.47126
O      0.31771    -1.27733     0.92198
H      1.27484    -1.20051     1.10823
O      0.08857    -2.69051     0.93797
H     -0.73155    -2.69172     0.41273
O      0.59215    -0.55957    -1.65657
H      0.37787    -0.82922    -0.72920
O      0.66719    -1.79030    -2.36565
H     -0.27197    -2.04233    -2.34028
O      3.70134     0.10785     0.02800
H      3.11348     0.77089    -0.39450
O      2.97544    -1.12273    -0.13246
H      2.64037    -1.10386    -1.04138
O     -0.87175     0.03190     2.96132
H     -0.61589    -0.62310     2.28392
O     -2.29108    -0.10007     2.95485
H     -2.49848     0.19757     3.84450
O     -1.52792     1.45502    -2.51732
H     -0.71774     0.94186    -2.64752
O     -1.05836     2.78697    -2.32643
H     -0.65966     2.73415    -1.44553
O      1.51338     1.42508     2.15592
H      0.66077     1.21687     2.56993
O      2.22416     0.21374     2.44567
H      3.06783     0.39249     2.01010
O     -1.94260    -2.15218    -1.87567
H     -2.62362    -2.77333    -2.13836
O     -2.13111    -2.10697    -0.46719
H     -2.36324    -1.15563    -0.34218
