 24
-909.9711170266639
O     -3.13555    -0.69106    -0.78638
H     -3.65667    -1.46437    -0.55661
O     -1.81885    -1.24426    -0.82221
H     -1.33651    -0.49606    -1.22543
O      1.10757    -1.90746    -1.39524
H      0.57823    -2.63317    -1.74514
O      1.33744    -2.30979    -0.04370
H      0.65542    -1.80582     0.42829
O      3.10618    -0.08665     0.71046
H      2.79933    -0.94295     0.37819
O      2.91137     0.72205    -0.44728
H      3.77382     1.13376    -0.55707
O     -2.21037     2.30075     0.56299
H     -1.45595     2.19365    -0.03976
O     -2.30523     0.99628     1.14953
H     -2.73791     0.48068     0.44104
O      0.82262    -0.04542     2.52207
H      1.68329     0.22106     2.17375
O      0.10781    -0.10352     1.28311
H     -0.74861     0.34055     1.47991
O      0.06783     1.82531    -0.92767
H      0.51772     1.44618    -0.15574
O     -0.21284     0.66592    -1.71188
H      0.60540     0.14383    -1.64691
