 20
-758.3051662621939
O      1.63172    -0.61608    -0.66934
H      1.29835    -1.46437    -0.30340
O      1.87461     0.07840     0.56826
H      1.35580     0.88622     0.42723
O      0.52359    -2.43496     0.90732
H     -0.23213    -1.86962     1.13042
O      1.32846    -2.35584     2.08564
H      1.79469    -1.52328     1.92741
O     -0.73756     2.56798     0.74298
H     -0.47424     3.30172     1.30426
O      0.44356     2.35040    -0.01867
H      0.05010     2.06928    -0.85927
O     -1.20355    -0.29691    -2.52119
H     -1.37286     0.03064    -3.40868
O     -0.23510     0.65603    -2.07832
H      0.43019     0.06339    -1.66513
O     -1.19923    -0.07800     0.80251
H     -1.05876     0.88281     0.88021
O     -2.51228    -0.14588     0.22635
H     -2.28227    -0.28234    -0.70087
