 32
-1213.3087336229937
O     -0.30437    -3.76551     0.32273
H      0.37935    -3.11185     0.09674
O     -1.33434    -2.90387     0.81630
H     -1.05662    -2.76997     1.73937
O      1.59055    -1.01831     1.20037
H      2.15433    -0.26459     0.93304
O      1.28965    -1.62964    -0.05258
H      0.65080    -1.01489    -0.45032
O     -1.93710    -0.64558    -0.46295
H     -1.68516    -1.51536    -0.06583
O     -1.01814    -0.54460    -1.55807
H     -1.47316     0.10401    -2.14145
O     -0.91273     1.58959    -3.81365
H     -0.44880     1.97654    -3.04047
O     -2.14946     1.19907    -3.20036
H     -2.69348     1.01250    -3.97150
O      3.00317     1.18488     0.52153
H      3.90199     1.50385     0.64482
O      2.23750     2.35017     0.81082
H      1.38793     1.94505     1.07351
O      0.34950     2.45227    -1.60856
H     -0.14721     2.21156    -0.79960
O      1.31358     1.38941    -1.68809
H      2.08241     1.80182    -1.26529
O     -1.09614     1.64271     0.56935
H     -1.45917     0.79187     0.21812
O     -0.11591     1.21568     1.52444
H     -0.54803     0.49684     2.02515
O     -0.88988    -0.68456     3.25515
H     -0.82887    -0.55532     4.20613
O     -0.13843    -1.87979     3.06574
H      0.58833    -1.55351     2.49795
