 32
-1213.3046554061752
O     -0.60458    -2.37852     1.21700
H     -0.74770    -2.44545     0.24428
O      0.68729    -2.96420     1.35635
H      1.21106    -2.38131     0.77466
O     -0.65368    -2.64200    -1.37012
H     -0.32533    -3.35416    -1.92940
O     -1.64735    -2.00909    -2.19248
H     -1.24676    -1.12265    -2.26120
O      1.79885     2.80249     1.33296
H      1.53167     3.54380     0.77404
O      1.47216     1.72057     0.45911
H      0.79174     1.21632     0.96872
O     -0.91375     1.37829    -2.46699
H     -0.11050     1.90049    -2.59720
O     -0.39207     0.32717    -1.66724
H     -0.82108     0.49277    -0.79902
O      1.58781     4.15564    -1.52362
H      2.42427     4.52960    -1.81799
O      1.68734     2.81982    -2.03829
H      1.72526     2.31406    -1.20225
O      3.04572    -0.54506    -0.27154
H      2.89629     0.12048     0.41622
O      1.76743    -1.17013    -0.32415
H      1.29311    -0.64515    -0.99325
O     -0.28355     0.16248     1.72536
H     -0.24225    -0.82331     1.66619
O     -1.38617     0.43237     0.84044
H     -2.14153     0.24565     1.43949
O     -3.37405    -1.78736     1.96788
H     -2.43245    -1.99863     1.86785
O     -3.31389    -0.44324     2.44821
H     -3.43898    -0.53721     3.39816
