 40
-1516.6376746283258
O      4.33016     1.03932    -0.22228
H      5.18207     0.78026     0.14464
O      3.56589    -0.15665    -0.09155
H      2.96806     0.08685     0.64895
O      2.24761     1.62410     2.60588
H      2.21482     2.32087     1.92481
O      1.85253     0.47177     1.85627
H      0.96258     0.27844     2.19625
O      2.13314     3.51543     0.64872
H      1.17716     3.67926     0.57121
O      2.40479     2.90351    -0.60999
H      3.16269     2.32573    -0.39399
O     -0.99874    -0.42994     2.26953
H     -1.20118    -1.38418     2.25076
O     -1.59665    -0.07112     1.01577
H     -1.44625     0.88726     0.99247
O     -4.07853    -2.85470    -0.33780
H     -4.69003    -3.57895    -0.17550
O     -3.22606    -3.43456    -1.33357
H     -2.40543    -3.55932    -0.81368
O      0.54322     1.10846    -1.23975
H      1.15619     1.86389    -1.10488
O     -0.60795     1.71471    -1.83643
H     -1.08214     0.89119    -2.08746
O     -0.52577     3.88940     0.67126
H     -1.05668     4.30010     1.35797
O     -1.16453     2.62126     0.55722
H     -1.06193     2.44604    -0.40810
O      1.25167    -1.76155    -1.22295
H      2.08233    -1.27578    -1.09039
O      0.61346    -1.56322     0.02866
H      0.14730    -0.71101    -0.09063
O     -1.94179    -2.89119     1.65862
H     -2.76492    -2.60921     1.23199
O     -1.22595    -3.41357     0.53217
H     -0.52331    -2.73734     0.39703
O     -2.19393    -1.30492    -3.22174
H     -2.73387    -1.90479    -2.69027
O     -1.37180    -0.75165    -2.20076
H     -0.51788    -1.19476    -2.32943
