 36
-1364.9770571795168
O     -0.32799     2.06458     0.84083
H     -1.23823     2.18829     0.52269
O     -0.34140     2.65032     2.14565
H     -0.14718     1.85317     2.67556
O     -0.66769    -2.02514     2.55304
H     -0.09990    -2.63733     2.03993
O     -1.93716    -2.23011     1.92486
H     -1.88760    -1.60097     1.17976
O      0.49561    -2.73344    -2.72778
H      0.78401    -1.81463    -2.65820
O     -0.22057    -2.90544    -1.50565
H     -0.91392    -2.20944    -1.55351
O     -1.79526    -0.77082    -1.43014
H     -1.79459     0.12919    -1.80765
O     -1.46105    -0.50705    -0.06580
H     -0.49195    -0.34738    -0.12837
O      0.45928     0.29265     3.19546
H     -0.06532    -0.52134     3.01724
O      1.68504     0.00879     2.51605
H      1.55897     0.49414     1.68796
O     -2.04672     1.78576    -2.47609
H     -2.92804     1.99967    -2.79241
O     -1.89788     2.73312    -1.42210
H     -1.04491     3.13545    -1.67091
O      1.44971     2.79483    -0.95169
H      0.81969     2.55721    -0.23284
O      0.64423     3.64852    -1.76216
H      0.98191     4.51948    -1.52983
O      1.01743    -3.16441     0.85216
H      0.60970    -3.12016    -0.04089
O      2.09024    -2.22512     0.73977
H      2.07350    -1.81639     1.61798
O      1.48239     0.11864    -1.83600
H      1.80050     1.03301    -1.77878
O      1.13283    -0.07309    -0.45957
H      1.59783    -0.90972    -0.23610
