 28
-1061.64504051502
O     -1.44347    -0.51624    -0.49060
H     -1.94066    -0.08062    -1.21312
O     -1.86534    -1.87711    -0.63606
H     -1.02200    -2.24964    -0.95123
O     -0.50469     2.27530     0.20256
H     -0.50004     1.64101     0.96371
O      0.88249     2.63386     0.13321
H      1.00269     2.75301    -0.81323
O      1.79001    -2.05270     1.34568
H      2.09292    -1.11256     1.35281
O      0.71207    -1.99559     2.27276
H      0.21944    -0.39051    -1.03721
O     -0.44605     0.42319     2.04703
H     -0.08723    -0.48292     2.14185
O     -1.85981     0.22287     2.02220
H     -1.96451    -0.13296     1.12055
O     -1.61403     2.09793    -2.47602
H     -1.52845     2.27779    -1.52905
O     -2.44903     0.94323    -2.44116
H     -3.26504     1.24609    -2.85175
O      0.76079    -2.15912    -1.18358
H      1.18014    -2.22622    -0.30639
O      0.98296    -0.77809    -1.50546
H      1.07229    -2.45343     3.03777
O      3.08687     0.22945    -0.17554
H      2.42947    -0.19494    -0.76398
O      2.29497     0.49587     0.98145
H      1.82442     1.32098     0.73824
