 32
-1213.3049751618348
O      1.99604    -1.37995     0.29813
H      2.45152    -2.22553     0.23425
O      2.37395    -0.95201     1.60251
H      2.75547    -0.08543     1.39213
O     -1.56237    -1.42321    -1.32854
H     -1.93658    -0.51271    -1.16984
O     -0.21077    -1.17258    -1.72629
H      0.20493    -0.98029    -0.86874
O     -2.93554    -3.19216     1.08312
H     -2.90771    -4.15275     1.10808
O     -1.55681    -2.88102     0.88341
H     -1.57867    -2.46062    -0.01073
O     -0.34995     2.60802    -0.33038
H      0.22319     2.23699    -1.03170
O      0.37174     2.24880     0.85133
H      0.00635     1.35965     1.04534
O      3.49546     1.75809    -0.36021
H      4.02310     2.56122    -0.38303
O      3.01277     1.74645     0.97846
H      2.09556     2.08170     0.86974
O      1.35444     1.40157    -1.98733
H      2.21277     1.34262    -1.53135
O      1.48656     0.46855    -3.05743
H      0.80811    -0.17777    -2.79957
O     -1.41432    -0.49506     2.13204
H     -1.64074    -1.41596     1.88958
O     -0.31939    -0.28596     1.22832
H      0.39563    -0.83449     1.59681
O     -3.30350     0.66330     0.34050
H     -2.66822     0.28302     0.96844
O     -2.48147     0.98516    -0.78277
H     -1.88893     1.69820    -0.46707
