 24
-909.9760645481737
O     -2.49928     1.23763     0.17063
H     -2.65733     0.28002     0.09983
O     -2.82879     1.68373    -1.14858
H     -1.97360     2.02006    -1.44680
O      0.82651    -1.54669    -0.69168
H      0.26150    -1.57537     0.09866
O     -0.08814    -1.01648    -1.65836
H      0.03856    -0.05933    -1.50576
O      2.97890    -0.10370    -1.43260
H      2.23070    -0.70570    -1.25208
O      2.87180     0.82525    -0.35606
H      2.79802     0.26377     0.43134
O     -1.35131    -1.89457     0.76642
H     -1.60080    -2.81185     0.92575
O     -2.29480    -1.49644    -0.23305
H     -1.69374    -1.43377    -1.00187
O      1.39422    -0.01170     2.04986
H      0.89542     0.66788     1.54319
O      0.38923    -0.46499     2.95827
H      0.68449    -0.06971     3.78491
O      0.38100     1.48133    -0.84906
H      1.36341     1.39996    -0.78391
O      0.07737     1.71022     0.54065
H     -0.89540     1.56173     0.54948
