 36
-1364.9766567223946
O      1.74609     0.23255    -1.96369
H      2.57966    -0.11824    -2.29227
O      2.15296     0.98248    -0.82884
H      1.86559     0.41151    -0.07723
O     -2.75136     0.02392    -1.27757
H     -2.16050    -0.44142    -1.90466
O     -2.59347     1.36987    -1.72360
H     -1.66786     1.53950    -1.49284
O     -1.29689    -1.19301     0.85712
H     -1.96283    -0.76449     0.28817
O     -1.29772    -2.54685     0.38176
H     -0.37739    -2.80326     0.61068
O     -0.60250    -0.90563    -2.42724
H      0.24194    -0.47462    -2.18768
O     -0.33726    -2.28229    -2.15529
H     -0.92533    -2.43081    -1.39353
O      1.29480    -2.99258     0.58416
H      1.95613    -2.78477     1.27879
O      1.85162    -2.30307    -0.54194
H      1.15585    -2.43234    -1.21256
O      1.07614    -0.12291     1.29487
H      0.21527    -0.59863     1.17423
O      0.67795     1.07005     1.97800
H      0.29035     1.57650     1.22892
O     -2.54724     3.81403     0.47533
H     -2.98886     4.43968     1.05710
O     -3.16725     2.57866     0.84430
H     -3.37432     2.22504    -0.03244
O      2.93321    -2.36289     2.59251
H      2.75925    -2.42296     3.53648
O      3.34232    -0.99769     2.43247
H      2.52534    -0.62177     2.04489
O      0.59029     3.19294    -0.66521
H      1.27295     2.50988    -0.77047
O     -0.40499     2.37755    -0.04953
H     -1.08589     3.03525     0.21754
