 36
-1364.9698183759015
O      2.46054     0.20253     1.59068
H      1.63589     0.10799     2.11210
O      2.03589    -0.47591     0.39749
H      2.71570    -1.17541     0.31243
O     -0.00904    -0.27482     2.41877
H     -0.66020     0.27257     1.92977
O     -0.25642    -1.59869     1.94670
H      0.41573    -1.69214     1.24928
O      0.99243     2.73173     0.04346
H      1.29966     3.26241    -0.69984
O      1.94338     3.03130     1.07240
H      2.41987     2.18800     1.12215
O     -0.03952     0.38412    -1.31131
H      0.62603     0.76848    -0.70376
O     -0.45234     1.46758    -2.11526
H     -1.28985     1.70302    -1.68614
O      0.79972    -2.38524    -1.89579
H      0.74390    -1.42673    -1.76174
O      0.48273    -2.86590    -0.59154
H     -0.48957    -2.93105    -0.62057
O     -4.09250     1.46123    -0.46257
H     -3.65881     0.59361    -0.42895
O     -3.24093     2.14410    -1.37862
H     -3.78351     2.18758    -2.17502
O     -1.46606     1.48715     1.04935
H     -0.80439     2.17388     0.85779
O     -2.40609     2.17580     1.88122
H     -3.15591     2.20814     1.27344
O      3.62021    -2.17089    -1.42400
H      2.77783    -2.59637    -1.63314
O      3.71812    -2.50033    -0.03685
H      4.62786    -2.80273     0.03836
O     -2.06136    -2.12380    -0.16259
H     -1.88813    -1.89130     0.76268
O     -2.28844    -0.84894    -0.75777
H     -1.38146    -0.52328    -0.94716
