 20
-758.305785267403
O      1.81030    -0.36448     1.20425
H      1.70796    -0.84632     0.36802
O      1.64730     0.98789     0.76363
H      2.51465     1.36624     0.93977
O      0.35357    -1.87189    -0.77737
H     -0.51826    -1.41625    -0.71393
O      0.23003    -2.89699     0.20823
H     -0.14843    -2.42169     0.95716
O     -1.01049     1.49725     1.76574
H     -0.05007     1.40573     1.81113
O     -1.38188     1.01767     3.05900
H     -1.84176     1.78649     3.40785
O      0.55230     1.11152    -1.68935
H      0.99662     1.06988    -0.82314
O      1.37637     0.26711    -2.48620
H      0.92913    -0.58481    -2.37512
O     -1.77971    -0.40695    -0.36547
H     -1.69514     0.39859     0.17209
O     -1.90200     0.07738    -1.70557
H     -1.04735     0.54557    -1.81140
