 24
-909.9765627951831
O     -1.12041    -1.08960     0.81345
H     -0.34299    -1.33713     1.33786
O     -1.60626     0.06699     1.50580
H     -1.01971     0.75998     1.14138
O      0.30137    -1.04971    -1.66970
H     -0.47781    -0.97535    -1.09992
O      0.04240    -0.11110    -2.71318
H      0.08845     0.73126    -2.22647
O      1.43373    -1.89959     1.93004
H      1.94425    -1.77686     1.10634
O      1.95188    -0.80143     2.69368
H      2.31277    -1.26109     3.45719
O     -2.63680     0.93493    -1.43735
H     -3.02609     0.49194    -2.20011
O     -3.63895     0.81581    -0.43014
H     -3.18523     0.24095     0.20471
O      2.58379     0.54435     0.17974
H      2.72142     0.40317     1.12749
O      2.54820    -0.81672    -0.28066
H      1.77723    -0.80766    -0.89087
O      0.15684     1.67726     0.28703
H      1.03690     1.27973     0.12468
O     -0.26166     2.02784    -1.03638
H     -1.20500     1.77671    -1.00686
