 32
-1213.306446787553
O      2.10424    -0.09796     2.98878
H      2.85458    -0.00654     3.58628
O      2.74890    -0.44438     1.76338
H      2.52774     0.32460     1.21508
O     -0.94208    -1.18250    -2.58504
H     -0.37742    -1.29477    -3.35673
O     -0.87198    -2.45825    -1.93385
H     -0.31094    -2.22970    -1.16741
O      1.12686     1.80146     0.97897
H      0.37795     1.95070     0.35735
O      0.49324     1.93615     2.25880
H      0.97545     1.23352     2.72180
O     -0.34711     2.00526    -2.09164
H      0.39291     1.37952    -1.99611
O     -0.87879     2.02689    -0.76271
H     -1.68843     1.49359    -0.87026
O      2.82515     0.51407    -1.18705
H      3.48516     0.14221    -1.77652
O      1.62154     0.12060    -1.83755
H      1.24463    -0.46041    -1.13332
O     -1.50039    -0.53179     1.48152
H     -2.21129    -0.65594     0.82424
O     -1.92364     0.68575     2.10715
H     -1.09311     1.19958     2.11564
O      0.52945    -1.30767     0.03341
H     -0.15183    -0.94063     0.66165
O      1.12699    -2.37467     0.76187
H      1.80853    -1.85466     1.21811
O     -3.36764    -0.59582    -0.48123
H     -4.28247    -0.30587    -0.42150
O     -2.85843     0.29761    -1.46877
H     -2.27880    -0.30343    -1.97792
