 40
-1516.638557493509
O      0.08473     2.14783     1.68303
H      1.00462     2.46430     1.54849
O      0.21823     1.40187     2.89932
H     -0.37540     0.63897     2.74652
O      1.12437     1.03189    -0.97189
H      1.22378     0.19411    -0.45363
O      0.31734     0.66162    -2.09139
H     -0.55221     0.98813    -1.79297
O      2.09819    -1.09858     3.45612
H      2.45323    -1.02184     4.34863
O      2.59304     0.08898     2.83097
H      1.79405     0.66015     2.84195
O      2.18285     3.32122    -0.11098
H      1.85994     2.54647    -0.60881
O      2.61292     2.65640     1.08036
H      3.52296     2.95617     1.16858
O     -1.61628     0.91209     0.07372
H     -0.99169     1.49023     0.56899
O     -2.86306     1.54576     0.32916
H     -3.13750     1.70637    -0.58253
O     -1.44172    -1.48604     1.27647
H     -1.56057    -0.63374     0.79624
O     -0.70960    -1.06953     2.43171
H      0.19425    -1.34884     2.20536
O     -3.42634     0.79981    -3.28357
H     -2.94595    -0.04164    -3.26218
O     -2.46327     1.64099    -2.64756
H     -2.25585     2.28319    -3.33615
O     -1.16707    -3.29480    -0.72282
H     -1.21173    -2.73325     0.07522
O      0.23383    -3.28387    -1.01936
H      0.20953    -2.87924    -1.90945
O      1.39629    -1.24345     0.35960
H      1.15598    -2.11564    -0.01698
O      2.81099    -1.18386     0.17328
H      3.04139    -0.78297     1.02289
O     -0.52171    -1.71959    -3.01503
H     -0.21402    -0.84913    -2.69469
O     -1.91569    -1.68478    -2.68432
H     -1.93464    -2.36652    -1.98311
