 24
-909.9704869231662
O     -1.65058    -2.18326     1.84403
H     -1.79706    -2.95726     2.39644
O     -1.30571    -2.79052     0.59064
H     -0.37207    -2.50540     0.53455
O     -0.74701    -0.39442    -1.13380
H     -0.62901     0.28560    -1.82874
O     -2.10736    -0.78605    -1.36272
H     -2.10086    -1.63473    -0.90317
O      2.17569     0.30678    -0.54617
H      1.73502     1.11701    -0.23052
O      3.52355     0.54277    -0.14632
H      3.95608     0.61053    -1.00244
O     -0.67445     1.76988    -2.67542
H     -1.43620     2.10305    -3.16338
O     -0.33718     2.85479    -1.81075
H     -0.71642     2.56786    -0.96510
O      1.04533    -1.58877     1.03995
H      1.47338    -0.91506     0.47443
O      0.66355    -0.82917     2.19855
H     -0.25090    -1.14505     2.28423
O      0.44582     1.66715     1.18231
H      0.57823     0.88401     1.75201
O     -0.92372     1.50226     0.78138
H     -0.89147     0.69924     0.22419
