 32
-1213.3066024208388
O      3.05787     1.54333     0.94610
H      2.65757     0.88409     1.54078
O      2.80304     2.76885     1.61889
H      2.00043     3.06800     1.17056
O     -3.04613    -2.28799    -1.93019
H     -3.18872    -3.15912    -2.30976
O     -1.63201    -2.30952    -1.75782
H     -1.34435    -1.50819    -2.24815
O     -0.54526     0.02768    -2.54688
H      0.34808    -0.01427    -2.15111
O     -1.11951     1.09678    -1.78216
H     -1.76946     0.63174    -1.22084
O      0.09121     2.42483     0.23919
H     -0.43318     2.13653    -0.53243
O     -0.75675     2.03884     1.32453
H     -0.23199     1.33287     1.74734
O      2.88456     0.33427    -1.45461
H      3.29148     0.78436    -0.69471
O      1.56565     0.15566    -0.95462
H      1.37623     0.99072    -0.49108
O     -0.35129    -1.99131     0.58806
H     -0.91514    -2.13472    -0.20233
O      0.88561    -2.56704     0.17833
H      1.37956    -1.76793    -0.05399
O      1.80255    -0.41398     2.30355
H      1.96748    -0.88377     3.12659
O      0.40448    -0.16947     2.36620
H      0.05735    -0.87936     1.76882
O     -2.67847     0.24287     0.16369
H     -2.27895     0.78022     0.86358
O     -3.14180    -0.89993     0.88100
H     -3.26678    -1.50904     0.14444
