 20
-758.3030750800267
O      0.92572    -1.36597    -1.68793
H     -0.04372    -1.35611    -1.75552
O      1.03014    -2.07672    -0.44649
H      1.76858    -1.61484    -0.01861
O      2.62048    -0.43571     1.02134
H      2.10017     0.36195     0.82836
O      2.29081    -0.66992     2.38905
H      3.13859    -0.50401     2.81198
O      0.22165     2.39545    -0.96894
H     -0.60533     2.48434    -0.47983
O      0.73106     1.20211    -0.35833
H      0.81502     0.60504    -1.11592
O     -1.59241    -1.04654    -0.91052
H     -1.91673    -0.13684    -0.99379
O     -1.23711    -1.04019     0.49140
H     -0.37627    -1.49345     0.42516
O     -2.23363     1.71391     0.72227
H     -1.77906     0.89503     0.98264
O     -2.83772     1.29410    -0.50490
H     -3.75972     1.16200    -0.25546
