 36
-1364.9706584281503
O     -0.35910     2.11925    -0.56041
H      0.28224     2.84485    -0.38161
O     -0.54407     1.58931     0.75748
H     -1.17908     0.87108     0.59543
O     -2.66557    -1.49433    -0.95307
H     -2.52693    -0.74816    -1.56802
O     -2.06459    -0.93826     0.22112
H     -1.19357    -1.38860     0.21726
O      1.55428     1.81479     2.27850
H      0.73525     1.67262     1.75617
O      1.17404     1.15862     3.48519
H      1.87854     0.51193     3.58671
O      1.57520     3.81024     0.14090
H      1.82032     3.69727     1.07099
O      2.70947     3.30750    -0.56236
H      2.52117     2.35512    -0.57950
O     -1.12200    -1.09822     2.96936
H     -1.84772    -1.26524     2.35132
O     -1.38661     0.24921     3.36338
H     -0.47815     0.57857     3.46803
O     -1.58257     0.51504    -2.30665
H     -1.15681     1.18858    -1.74181
O     -0.44686     0.01392    -3.00981
H     -0.69006    -0.91238    -3.14322
O      1.95645     0.41073    -0.41701
H      1.79492    -0.00870     0.44702
O      1.53214    -0.64958    -1.28148
H      0.89144    -0.20982    -1.87014
O     -0.82811    -3.82411    -3.32595
H     -0.27983    -4.55503    -3.02512
O     -0.50820    -2.82364    -2.34861
H     -1.31729    -2.78522    -1.80944
O      0.29562    -2.13176     0.45860
H      0.79538    -1.90233    -0.35434
O      0.98369    -1.28727     1.39949
H      0.27272    -1.18344     2.06701
