 36
-1364.9773698793106
O     -0.20397     2.40960     2.42287
H      0.63745     2.08368     2.05183
O     -1.10080     1.49783     1.81788
H     -0.89242     0.64614     2.25975
O      1.67567    -0.36484     0.89968
H      1.03257    -0.45933     0.16569
O      1.69482     1.03898     1.15015
H      2.01698     1.40043     0.29245
O     -1.38364    -1.89137     1.98543
H     -2.20683    -1.37958     1.93391
O     -0.52795    -0.96021     2.65711
H      0.34416    -1.19033     2.30744
O      0.30215    -0.94792    -1.27048
H      0.74160    -0.40379    -1.94764
O      0.77439    -2.26391    -1.55349
H     -0.08132    -2.70647    -1.66076
O     -3.61133    -0.43769     0.95372
H     -3.45150    -0.87572     0.09415
O     -3.60179     0.93869     0.55811
H     -2.97751     1.29811     1.20145
O     -1.59724     1.13745    -1.33894
H     -2.47898     1.40438    -1.04280
O     -0.74768     2.10507    -0.70941
H     -0.82858     1.88365     0.25282
O      2.50159     1.73295    -1.24811
H      3.14088     1.06447    -1.53559
O      1.41768     1.50740    -2.15940
H      0.67055     1.87692    -1.64698
O      3.60262    -0.94424    -1.20706
H      3.19034    -1.04700    -0.33717
O      4.80939    -0.26101    -0.86855
H      5.47093    -0.89019    -1.17231
O     -2.53774    -1.56267    -1.19698
H     -1.82480    -0.91889    -1.35683
O     -1.82415    -2.72684    -0.79535
H     -1.63969    -2.55049     0.13906
