 24
-909.9760214044956
O     -2.64626    -1.35083     0.62920
H     -2.39881    -0.49083     0.24462
O     -2.61456    -2.15918    -0.54606
H     -3.30984    -2.79695    -0.36492
O      0.03109    -2.00057    -0.59452
H     -0.94305    -2.10427    -0.64986
O      0.29973    -1.21597    -1.76692
H      1.11396    -0.73115    -1.50896
O      3.29925     0.11887    -0.19249
H      2.81301    -0.41679     0.45505
O      2.22255     0.49328    -1.05453
H      1.81501     1.22253    -0.55985
O     -1.60920     1.01935    -0.34909
H     -1.10997     1.84187    -0.23498
O     -1.54241     0.80668    -1.76723
H     -0.89933     0.07223    -1.81050
O      0.70187    -0.07256     2.10739
H      0.79717    -0.38127     3.01202
O      1.46692    -1.03585     1.39787
H      0.82090    -1.38497     0.74090
O      0.87068     2.17252     0.65570
H      0.76645     1.48001     1.33366
O     -0.17431     3.07057     1.00488
H      0.18945     3.89022     0.66060
