 20
-758.3054285419479
O     -0.28733    -1.59493     1.23109
H     -0.32486    -2.52674     1.46721
O     -1.01587    -1.58857     0.00452
H     -0.37363    -1.17426    -0.60790
O      1.79268    -1.01644    -2.01935
H      2.32651    -0.64777    -1.30450
O      0.55368    -0.35956    -1.73943
H      0.28983    -0.02120    -2.60255
O     -0.68320     1.48563     1.70602
H     -1.53089     1.07910     1.47289
O     -0.18073     1.78811     0.39781
H      0.70770     1.39120     0.43311
O      2.25642     0.76289     0.82599
H      2.70649     0.97461     1.65153
O      2.24872    -0.66432     0.82349
H      1.31682    -0.86583     1.02794
O     -2.80909     0.45604    -0.05389
H     -2.37414    -0.40928    -0.01278
O     -2.18064     0.99641    -1.22858
H     -1.43831     1.46519    -0.80369
