 32
-1213.316596907464
O      2.37862     0.33363    -0.62660
H      2.35001    -0.22882     0.17825
O      2.22478     1.65041    -0.07211
H      1.90678     2.11667    -0.86457
O     -1.10865    -2.34656    -0.42025
H     -1.44208    -1.96543     0.42205
O      0.05050    -1.55543    -0.67638
H     -0.32315    -0.67058    -0.85092
O     -2.38642    -1.13245    -2.97687
H     -2.13438    -1.84012    -2.36536
O     -1.60224    -0.05439    -2.44825
H     -0.82646    -0.02196    -3.03234
O      1.36526     1.35306     2.44952
H      1.67143     1.65023     1.56988
O     -0.03196     1.65124     2.36817
H     -0.42729     0.86826     2.79833
O      1.01827     0.66686    -2.94303
H      1.61158     0.26304    -2.28743
O      0.92758     2.00112    -2.42560
H      0.07212     1.96759    -1.97249
O      1.11123    -2.00344     1.65811
H      0.84319    -2.00389     0.71162
O      2.22771    -1.10532     1.63437
H      1.94087    -0.42466     2.26444
O     -1.02825    -0.82092     2.78500
H     -0.30237    -1.40093     2.48534
O     -2.00191    -1.04631     1.76349
H     -2.09802    -0.16011     1.36080
O     -2.19335     1.04199     0.11944
H     -2.39749     0.60963    -0.72219
O     -0.82253     1.37834    -0.14917
H     -0.49226     1.58230     0.75864
