 32
-1213.3121536230994
O      0.34379    -0.73214     1.03948
H      0.92908    -0.85928     0.25488
O     -0.17671    -2.03759     1.24594
H     -0.78652    -2.10247     0.49070
O      0.25588    -4.42679    -0.95126
H      0.39816    -5.30906    -1.31093
O      0.38358    -3.62739    -2.12417
H     -0.50801    -3.25782    -2.19885
O     -2.54807    -0.92564    -2.08240
H     -2.74669    -0.19724    -1.47213
O     -1.45304    -1.53161    -1.39339
H     -0.68246    -1.02575    -1.73210
O     -0.70273     3.31707     1.61434
H     -1.19992     2.47932     1.46238
O     -0.27815     3.13041     2.96351
H     -0.32569     4.02872     3.30030
O      1.37625     1.64572    -0.82753
H      1.51795     1.57762     0.14714
O      0.20832     2.45218    -0.95526
H      0.26855     3.02995    -0.18226
O      0.86445    -0.54784    -2.21222
H      1.11270     0.34570    -1.89384
O      1.56557    -1.33214    -1.23119
H      1.38417    -2.23258    -1.56271
O      2.23747     0.74949     2.61972
H      1.61421     0.02460     2.47492
O      1.67651     1.75721     1.77737
H      1.08237     2.26100     2.37176
O     -2.05640     1.16805    -0.40618
H     -1.26661     1.60716    -0.77196
O     -1.67156     0.97640     0.95322
H     -0.94864     0.31294     0.90645
