 32
-1213.3103702163198
O      0.93337     0.09756     0.78309
H      1.67895    -0.43441     0.40891
O      1.41582     0.47163     2.07961
H      1.41249     1.42943     1.92813
O      1.52842    -1.94650    -1.35562
H      0.94439    -2.28924    -0.64709
O      2.62445    -1.37768    -0.61530
H      2.81512    -0.63037    -1.21213
O     -2.01257    -0.69398    -2.40256
H     -1.78691    -1.05860    -1.52462
O     -1.59100     0.66745    -2.23798
H     -0.74061     0.67368    -2.71309
O     -2.76066     1.03164     0.92107
H     -2.48408     0.30680     1.49491
O     -1.51956     1.39232     0.33039
H     -1.66417     1.18412    -0.62121
O      2.10012     0.75092    -2.09885
H      1.65107     1.34655    -1.47241
O      1.03650     0.30894    -2.94338
H      1.03386    -0.63745    -2.72953
O     -0.51038    -1.54418     3.14987
H      0.02102    -0.74183     3.02778
O     -1.81513    -0.99378     3.29959
H     -2.06609    -1.30411     4.17519
O     -0.30206    -2.47922     0.55391
H     -0.39888    -2.27864     1.50341
O     -1.01356    -1.38274    -0.01847
H     -0.42311    -0.63029     0.22543
O      1.15123     2.65952    -0.41839
H      1.08407     3.55167    -0.77449
O      0.62288     2.81540     0.89101
H     -0.24137     2.36400     0.76822
