 40
-1516.6419379881174
O      2.35819     1.45564     2.03062
H      2.32422     0.99093     1.16820
O      2.49041     2.81877     1.61214
H      3.28171     3.08898     2.08706
O     -0.78752     1.53691    -2.14532
H     -0.50348     0.65233    -2.45817
O      0.43355     1.94274    -1.51043
H      0.12003     2.51695    -0.78131
O     -0.04649     3.32973     0.72608
H      0.80677     3.26472     1.19178
O     -0.91582     2.65336     1.63524
H     -1.62524     2.35554     1.02867
O     -2.72209    -2.70142     1.69953
H     -2.15251    -2.86524     0.91580
O     -1.74283    -2.78861     2.73828
H     -2.13182    -3.45091     3.31589
O     -2.71829     0.13155     0.11999
H     -2.44401     0.08731     1.05734
O     -2.55892     1.52553    -0.15124
H     -2.03576     1.51415    -0.98433
O      0.76036    -0.79055     0.34271
H      0.43147    -0.33244     1.15516
O      1.78423     0.06196    -0.16827
H      1.28487     0.61909    -0.81535
O      3.14059    -1.62038    -2.11501
H      2.75679    -1.16995    -1.34550
O      4.32875    -0.85499    -2.33086
H      5.00266    -1.52864    -2.20363
O     -1.70623    -0.14109     2.58030
H     -1.66377    -1.08722     2.83219
O     -0.32478     0.23547     2.57795
H     -0.41991     1.20468     2.49728
O      0.79645    -1.07185    -3.87856
H      1.67445    -1.35156    -3.58976
O      0.19451    -0.87953    -2.59534
H     -0.46901    -1.59267    -2.51129
O     -1.02770    -2.65009    -0.32763
H     -0.34063    -1.96976    -0.15421
O     -1.87304    -2.01934    -1.28452
H     -2.21558    -1.25096    -0.78424
