 24
-909.9768681451167
O     -1.27219    -2.21588    -0.07792
H     -0.39086    -1.91292     0.21593
O     -2.06733    -1.61776     0.96275
H     -2.36270    -0.80619     0.51915
O     -2.30952     1.76764     0.37386
H     -2.75469     2.47070    -0.11061
O     -2.39681     0.65824    -0.51756
H     -1.51882     0.67115    -0.95531
O      2.71719    -0.46485    -1.00898
H      2.45266    -0.93135    -0.19947
O      3.17705     0.76345    -0.45181
H      4.10591     0.75843    -0.69799
O     -0.64925    -0.73678    -2.52506
H     -1.01645    -1.38331    -1.89870
O     -0.03012     0.19270    -1.63059
H      0.91350    -0.04820    -1.68847
O      0.72675    -1.38316     2.42861
H     -0.21699    -1.59221     2.48323
O      0.82788    -1.02650     1.05759
H      0.62169    -0.06022     1.10069
O      0.81610     2.51358     0.30715
H      1.56684     2.00391    -0.02022
O      0.22217     1.54301     1.16994
H     -0.73054     1.69544     0.99767
