 32
-1213.3105383443674
O      0.96747     0.06936    -1.74598
H      1.66369     0.05123    -1.05900
O      0.45905    -1.27091    -1.72652
H     -0.35183    -1.15691    -2.26581
O      0.78870    -2.18990     0.77013
H      0.60913    -1.88476    -0.15035
O      2.15638    -2.58905     0.71007
H      2.61477    -1.76856     0.94180
O     -1.83435    -0.89925    -3.06810
H     -2.38568    -1.45564    -3.62713
O     -2.76875    -0.38654    -2.12088
H     -2.49894    -0.88484    -1.31853
O      3.05330     0.26327     1.56635
H      2.22454     0.13007     2.06464
O      2.57474     0.71073     0.30341
H      2.27164     1.61827     0.50211
O      1.44023     3.10245     0.71017
H      1.49155     3.96885     0.29681
O      0.10437     3.05940     1.20339
H     -0.37018     2.60231     0.46734
O     -2.38911    -1.15508     1.12720
H     -1.59420    -0.64669     1.36613
O     -1.95111    -1.81267    -0.05549
H     -1.93212    -2.73887     0.20714
O     -0.35576     0.34928     2.13069
H     -0.00521     1.25224     2.19090
O      0.67589    -0.44477     2.72841
H      0.63188    -1.22755     2.13183
O     -1.01197     1.45437    -0.59375
H     -0.27480     0.95896    -1.03015
O     -1.60039     2.16596    -1.68235
H     -2.32298     1.55958    -1.89028
