 36
-1364.9760300733312
O      2.62682     2.04981     0.86156
H      2.15583     1.83017     0.03460
O      1.60184     2.68402     1.63270
H      1.33296     1.93233     2.19765
O      0.85563    -2.71005    -0.76299
H      0.59629    -2.78782     0.16907
O      0.42359    -1.38875    -1.04853
H     -0.55255    -1.44748    -1.01464
O     -0.53915     0.15489     2.02029
H     -0.60388     0.88282     1.35298
O      0.75083     0.35214     2.59440
H      1.30494    -0.25380     2.07186
O     -0.91242    -0.10855    -3.40637
H     -0.85277    -0.36512    -4.33285
O     -2.18637     0.54076    -3.35136
H     -2.62583    -0.02613    -2.70099
O     -0.81660     1.93369     0.11578
H     -0.25218     2.02217    -0.68963
O     -0.83854     3.26405     0.63545
H      0.04970     3.28398     1.03657
O     -3.61858    -0.74265    -0.05834
H     -3.35749    -1.41708     0.58157
O     -2.35478    -0.49661    -0.66186
H     -2.12721     0.40418    -0.36504
O      0.62545     1.67257    -2.07780
H      0.18120     0.97882    -2.60822
O      1.59637     0.95072    -1.32198
H      1.16987     0.08439    -1.13485
O      2.55407    -0.78909     0.98746
H      3.12419    -0.00914     0.89231
O      3.40504    -1.87393     0.63561
H      2.96000    -2.18226    -0.16539
O     -2.14619    -2.83573     1.74024
H     -2.15804    -3.32792     2.56639
O     -0.77106    -2.45331     1.64862
H     -0.81116    -1.48068     1.81780
