 40
-1516.6482292477817
O     -1.43086     2.30171     0.26187
H     -1.48893     1.37361     0.56393
O     -0.00981     2.49213     0.22329
H      0.10800     2.60263    -0.74523
O      0.79015    -2.60048    -0.80739
H      0.92025    -2.09730     0.02917
O      2.05004    -2.39272    -1.45539
H      1.76415    -2.08887    -2.33863
O      2.94255    -0.03112    -0.39684
H      2.79045    -0.94584    -0.70535
O      1.82444     0.61750    -0.99216
H      1.26296     0.82751    -0.22853
O     -1.52884     0.44381     3.66032
H     -0.75965     1.00559     3.46085
O     -0.95467    -0.55730     4.49774
H     -0.58501    -1.15698     3.82818
O     -1.62975    -0.30844     0.83210
H     -1.84741    -0.68797    -0.04841
O     -2.77820    -0.63412     1.61243
H     -2.46453    -0.26072     2.47024
O      0.54661     1.98397     2.79959
H      0.31225     2.41973     1.95515
O      1.64412     1.18812     2.37137
H      2.40054     1.61292     2.78577
O     -0.35849     2.26875    -2.37271
H      0.09398     1.63934    -2.96090
O     -1.71289     1.80944    -2.46892
H     -2.05042     2.13963    -1.62348
O     -1.21547    -2.07198    -2.48400
H     -0.55076    -2.39224    -1.83713
O     -1.79715    -0.99830    -1.74231
H     -1.76058    -0.25368    -2.36153
O      0.00798    -1.76384     2.21558
H     -0.72627    -1.40491     1.67774
O      1.09228    -1.24260     1.44052
H      1.28476    -0.38120     1.86905
O      1.15831    -1.24805    -3.72290
H      0.23331    -1.53458    -3.74439
O      1.00871     0.14095    -3.41393
H      1.44334     0.18303    -2.53302
