 32
-1213.305333136766
O      2.62751     0.00589     1.14843
H      2.43842     0.19579     2.08768
O      2.53646     1.30451     0.57607
H      1.59701     1.54178     0.72967
O     -1.92179    -2.38473    -2.18835
H     -1.66984    -3.28471    -2.41124
O     -0.65846    -1.85093    -1.78553
H     -0.66698    -0.97360    -2.23281
O     -0.64141     0.66207    -2.71280
H      0.26695     1.02281    -2.76903
O     -1.19197     1.45640    -1.65962
H     -1.97041     0.93003    -1.38001
O     -0.06852     1.92825     0.72869
H     -0.42300     1.73910    -0.16712
O     -1.17502     1.59606     1.56607
H     -0.72271     1.15831     2.30210
O      1.94494     1.43184    -2.63399
H      2.58711     1.54484    -3.34013
O      2.48811     0.31041    -1.92738
H      2.64902     0.70044    -1.04053
O     -0.58346    -1.25636     0.88703
H     -0.59512    -1.58237    -0.03590
O      0.62184    -1.81483     1.40887
H      1.30923    -1.26399     0.99350
O      1.70382     0.20088     3.65783
H      1.96687    -0.36924     4.38784
O      0.33053    -0.14355     3.48718
H      0.37577    -0.85458     2.81234
O     -3.02854     0.15630    -0.26420
H     -2.60932     0.34764     0.58946
O     -3.54039    -1.15549    -0.05282
H     -3.06341    -1.64681    -0.73453
