 24
-909.9792902179811
O     -1.74148     0.29390     0.84908
H     -2.35132     0.21185     0.08283
O     -1.07824    -0.97528     0.81213
H     -0.44000    -0.88407     1.54953
O      0.32966    -0.93641    -1.45390
H     -0.27842    -1.05361    -0.69522
O     -0.28216     0.15201    -2.15364
H      0.02482     0.91537    -1.62168
O      2.62109    -0.91872     0.01507
H      1.91627    -0.87670    -0.65953
O      2.86273     0.45860     0.30972
H      2.29695     0.59222     1.08376
O     -3.44494     0.14797    -1.16289
H     -3.96433    -0.56346    -1.55071
O     -2.92781     0.83242    -2.30343
H     -2.00749     0.50837    -2.31467
O      0.86938    -0.64976     2.57841
H      1.02890    -0.63629     3.52779
O      1.39555    -1.92594     2.20253
H      1.93877    -1.65618     1.43490
O      0.70501     2.04644    -0.57224
H      1.63798     1.79485    -0.61372
O      0.46152     1.76773     0.81703
H     -0.41222     1.32680     0.78440
