 40
-1516.6341627182205
O     -1.01871     1.63101     1.63485
H     -0.58148     1.67772     0.75114
O     -0.03581     0.97371     2.44214
H      0.59125     1.69332     2.61849
O      3.30633     0.70794     0.41263
H      2.63187     0.04660     0.69007
O      3.00990     0.73489    -0.98828
H      3.84229     1.05355    -1.35136
O      0.84603     0.02446    -2.95270
H     -0.12030    -0.06074    -3.03487
O      1.22679    -1.23645    -2.38912
H      2.02405    -0.97428    -1.90255
O     -2.76029    -0.31164     1.14484
H     -2.27438     0.45359     1.52003
O     -2.40065    -0.15579    -0.22974
H     -1.70518    -0.84597    -0.34957
O     -1.85497     0.11904    -3.20358
H     -2.44667     0.14003    -3.96019
O     -2.27826     1.26290    -2.46973
H     -2.43778     0.84871    -1.59508
O      0.09434     1.65452    -0.79180
H      0.90707     1.27547    -1.17620
O     -0.16890     2.78202    -1.62560
H     -0.94280     2.42958    -2.09276
O      2.05924     2.83979     2.07063
H      2.66834     2.29422     1.54799
O      2.91860     3.37669     3.08005
H      2.89229     4.31394     2.86411
O     -2.43320    -3.69516     1.60530
H     -2.56247    -4.14771     2.44433
O     -1.59579    -2.60576     1.99908
H     -2.13684    -1.82932     1.73592
O      1.18916    -0.77549     0.87451
H      0.62602    -0.33961     1.55473
O      1.34758    -2.10421     1.35816
H      0.46602    -2.44565     1.15023
O     -0.66337    -2.07951    -0.70733
H      0.10834    -1.89274    -1.28490
O     -1.18918    -3.27629    -1.27457
H     -1.55056    -3.67429    -0.47284
