 24
-909.97726591954
O     -1.46059    -1.12325     0.87143
H     -0.90523    -1.38042     0.10052
O     -2.78129    -1.18046     0.33095
H     -3.03453    -2.09837     0.47438
O     -0.00450    -1.84734    -1.28102
H      0.90218    -1.90912    -0.91376
O      0.17825    -0.69189    -2.11577
H     -0.65278    -0.20644    -1.95747
O      2.28261    -1.13386    -0.19512
H      2.00215    -0.87911     0.70601
O      2.33268     0.14611    -0.83883
H      1.60553     0.03025    -1.47922
O     -2.08775     1.72147    -0.93872
H     -2.20519     2.36565    -1.64315
O     -2.17941     0.48774    -1.64775
H     -2.59234    -0.07788    -0.96287
O      1.24480    -0.30461     2.15041
H      0.70440     0.46892     1.87256
O      2.17370     0.29868     3.04469
H      1.97600    -0.17820     3.85446
O      0.85776     2.45019     0.15556
H      1.54858     1.79498    -0.02122
O     -0.08424     1.64911     0.87621
H     -0.84492     1.65598     0.27069
