 24
-909.9793387638064
O     -1.39331    -2.14669    -0.10558
H     -1.94551    -2.86560     0.21497
O     -1.83997    -1.05494     0.69686
H     -1.07169    -0.92941     1.30592
O      0.65757    -1.35374    -1.65666
H     -0.13587    -1.70577    -1.22069
O      0.09930    -0.29598    -2.44005
H      0.44434     0.48321    -1.96595
O      2.41498    -1.13030     0.30312
H      1.90924    -1.09315    -0.53751
O      2.96063     0.19267     0.39714
H      2.69547     0.39621     1.30667
O     -3.21430     1.80475    -0.20504
H     -3.74641     2.08126    -0.95679
O     -2.16061     1.11334    -0.87178
H     -2.17814     0.24960    -0.41080
O      0.95219     0.40546     2.26550
H      0.52208     0.91364     1.55001
O      0.43619    -0.91163     2.05904
H      1.13941    -1.27181     1.48414
O      1.10344     1.67953    -0.89858
H      1.84939     1.25291    -0.43512
O      0.18094     1.87210     0.18105
H     -0.67654     1.71883    -0.27158
