 20
-758.3157869568911
O      0.63772    -1.66816     1.79400
H      1.24045    -1.23330     1.15497
O     -0.29106    -2.26899     0.89305
H      0.01155    -3.18265     0.84633
O      1.64416     0.99725    -0.13236
H      1.06077     1.05241     0.64803
O      1.84837    -0.40877    -0.25909
H      1.22821    -0.62538    -0.98056
O     -0.23295     1.45295     1.70623
H     -0.81022     1.88931     1.06051
O     -1.15607     0.55025     2.32115
H     -0.56808    -0.18222     2.54249
O     -0.09686    -0.96494    -2.05061
H     -0.18452    -0.09002    -2.46532
O     -1.23056    -0.91334    -1.17660
H     -0.88348    -1.36181    -0.38058
O     -1.25979     1.71396    -0.90903
H     -1.46022     0.75949    -0.90482
O     -0.23966     1.72318    -1.92102
H      0.55568     1.66529    -1.36328
