 32
-1213.3052390953073
O      2.26750    -0.38997     3.50995
H      2.86867     0.11304     4.07017
O      2.91020    -0.31396     2.22786
H      2.41005     0.42450     1.82294
O     -0.44452    -0.40334    -2.58462
H      0.49494    -0.15520    -2.46676
O     -0.37187    -1.82497    -2.70272
H     -0.25098    -2.08300    -1.77795
O      1.00528     1.47451     1.70440
H      0.39874     1.61993     0.94723
O      0.06740     1.08918     2.72478
H      0.55275     0.34444     3.11291
O     -0.12968     2.48234    -1.48467
H      0.71434     2.04639    -1.64532
O     -0.61323     1.71023    -0.38822
H     -1.52327     1.52373    -0.66546
O      2.07928     0.28270    -2.13815
H      2.84122    -0.12682    -2.56078
O      2.40284     0.22784    -0.74774
H      1.72400    -0.42426    -0.46253
O     -1.92089    -0.73555     0.69841
H     -2.65375    -0.70542     0.05188
O     -2.29617     0.26605     1.64991
H     -1.42469     0.52142     2.00352
O      0.53694    -1.38352     0.02248
H     -0.35825    -1.08131     0.32802
O      0.93766    -2.27549     1.05857
H      1.71612    -1.81108     1.39901
O     -3.56664    -0.62696    -1.43828
H     -4.44325    -0.36589    -1.73433
O     -2.80067     0.52834    -1.77554
H     -2.03807     0.10212    -2.22157
