 16
-606.6335361506539
O     -2.69199     0.37271     1.18338
H     -1.77885     0.55508     0.91603
O     -3.30975     0.05554    -0.06880
H     -3.90112     0.80462    -0.19186
O      3.03191     0.51184     1.28973
H      2.80818     1.43287     1.11843
O      4.06816     0.28696     0.32734
H      4.81488     0.09481     0.90614
O      0.15925     0.76416     0.19180
H     -0.15858     0.59117    -0.71672
O      0.51906    -0.58408     0.55600
H      1.46276    -0.46451     0.72855
O     -1.27104    -0.24707    -1.84708
H     -2.08497    -0.29891    -1.31275
O     -0.85454    -1.61378    -1.88313
H     -0.31926    -1.65948    -1.07813
