 24
-909.9785957297098
O     -2.01937    -1.55378     0.21762
H     -1.51796    -0.87745    -0.26610
O     -2.32047    -0.86428     1.43551
H     -1.49926    -1.04106     1.93994
O      1.58430    -1.35862    -1.15511
H      1.31236    -2.10204    -0.59937
O      0.29545    -0.88068    -1.55829
H      0.53809    -0.03900    -1.97291
O      1.95130     0.12888     1.09504
H      2.08777    -0.22201     0.19653
O      1.37798     1.41665     0.84680
H      0.42880     1.21552     0.75073
O     -1.09287     1.27997    -0.10682
H     -1.04828     1.99384    -0.75904
O     -2.02689     1.79025     0.85731
H     -2.45995     0.95197     1.08934
O      0.26699    -2.64151     1.02682
H     -0.62272    -2.57434     0.63299
O      0.14018    -1.61664     2.02629
H      0.83354    -0.97827     1.75623
O      0.76279     2.66558    -1.72495
H      1.33289     2.40112    -0.98549
O      0.90453     1.54761    -2.59316
H      1.32736     1.93097    -3.36916
