 36
-1364.973699432725
O      1.60944     1.07590     0.42668
H      2.04812     0.86976    -0.43345
O      0.60547     2.01620     0.03594
H     -0.04700     1.93034     0.76670
O     -0.46240    -1.85376     2.20149
H      0.24196    -1.36514     2.66756
O     -1.57785    -0.96286     2.38550
H     -2.19345    -1.31769     1.72916
O     -0.54510    -1.14598    -2.74804
H      0.04668    -1.52874    -2.07847
O      0.28668    -0.14426    -3.33733
H     -0.24008     0.65117    -3.16374
O     -1.88285    -0.57363    -0.30553
H     -1.87451    -0.58297    -1.27660
O     -3.25811    -0.71926     0.02954
H     -3.40615     0.16456     0.41243
O     -0.91042     1.98214    -2.13266
H     -0.30575     1.99158    -1.35250
O     -2.07101     2.59788    -1.60124
H     -2.00086     3.49201    -1.94934
O      2.57449     0.35497    -1.97805
H      1.86773     0.14462    -2.61872
O      3.22907    -0.90816    -1.83677
H      2.75142    -1.27226    -1.07638
O     -1.49930     1.65089     1.64430
H     -1.54494     0.72368     1.94758
O     -2.68930     1.76841     0.87200
H     -2.34997     2.08651     0.01485
O      1.55407    -0.26946     3.05592
H      1.80765     0.15749     2.22086
O      2.66024    -1.13131     3.29244
H      2.99892    -0.77338     4.11849
O      1.77495    -1.88522     0.24852
H      1.86263    -2.75282     0.66023
O      0.54842    -1.99956    -0.45494
H     -0.06090    -1.51945     0.13608
