 24
-909.9813007721841
O      0.92409    -2.25063    -0.87828
H      1.78221    -1.84773    -1.08811
O      1.02548    -2.23751     0.55400
H      0.11333    -2.01241     0.82832
O     -1.27148    -1.34113     1.51691
H     -1.66889    -1.63443     2.34372
O     -0.62292    -0.13051     1.91392
H     -1.25476     0.53855     1.55171
O      2.88132    -0.33108    -0.55778
H      2.41290     0.40855    -0.98643
O      2.50625    -0.04250     0.80563
H      1.99174    -0.84682     1.00024
O     -1.82692     2.56366     0.10331
H     -0.87337     2.41045     0.24236
O     -2.37598     1.34761     0.61062
H     -2.43174     0.80123    -0.18916
O     -2.12507    -0.47867    -1.44590
H     -2.49222    -0.43911    -2.33377
O     -0.74644    -0.28068    -1.72898
H     -0.32163    -1.08511    -1.35964
O      0.80616     1.95522     0.25251
H      1.38376     1.34997     0.75844
O      1.10350     1.55181    -1.08899
H      0.31917     1.01875    -1.30994
