 32
-1213.3059854735902
O      2.42060    -0.27025     0.86394
H      2.08943    -0.61347     1.71822
O      2.44598     1.14357     1.08150
H      1.54093     1.32703     1.38679
O     -0.16425    -1.58637     0.33527
H      0.48290    -1.47863    -0.40948
O     -1.28029    -2.19771    -0.30452
H     -1.92264    -1.47576    -0.27845
O     -0.59799     0.74681    -1.37983
H      0.18370     1.20955    -1.72103
O     -1.67501     1.47476    -1.98492
H     -2.35907     1.26852    -1.32941
O     -0.48060     1.64996     1.13365
H     -0.52124     1.15968     0.28599
O     -1.54711     1.07170     1.89169
H     -1.08478     0.44212     2.47039
O      2.19548     1.52672    -1.58001
H      2.44444     1.39098    -0.64434
O      3.18146     0.73082    -2.23877
H      3.34054     1.25105    -3.03137
O      1.40103    -1.23648    -1.79058
H      2.12389    -0.62508    -2.02388
O      0.63315    -1.31764    -2.99490
H     -0.20943    -0.96853    -2.67500
O     -0.12562    -1.27972     2.93396
H     -0.12453    -1.52104     1.97696
O      1.27254    -1.11433     3.16475
H      1.50068    -1.93240     3.61819
O     -3.27822     0.12031     0.09688
H     -2.75286     0.46797     0.85331
O     -4.48962    -0.28290     0.72909
H     -5.11370     0.33788     0.34260
