 36
-1364.9719218323348
O      2.61801     2.21553     1.21038
H      1.84911     1.76850     1.62669
O      3.67548     1.28797     1.46785
H      4.05332     1.60773     2.29368
O     -1.36567    -2.38197     0.64215
H     -1.53090    -1.41892     0.66617
O     -0.72875    -2.52014    -0.63672
H      0.14743    -2.83938    -0.33249
O      0.60646    -0.30704     1.70110
H      0.86284    -0.93464     2.39022
O      0.54287     0.94936     2.38896
H     -0.32615     1.25020     2.05916
O      3.05355    -1.13383     0.51004
H      3.26076    -0.24716     0.88438
O      2.75314    -0.79281    -0.83805
H      3.48533    -1.18813    -1.31874
O     -1.53540     3.69583    -1.45520
H     -1.99923     4.52004    -1.62647
O     -2.61956     2.86082    -1.05421
H     -2.66314     2.21876    -1.80503
O     -1.77391     1.42310     1.07859
H     -2.06228     2.07048     0.39990
O     -1.70337     0.23413     0.29582
H     -0.88101     0.40356    -0.22591
O      0.35658     0.31746    -1.29122
H      1.19617    -0.15453    -1.11678
O     -0.28113    -0.49485    -2.27745
H     -0.56107    -1.26434    -1.73080
O     -2.55952     0.90242    -2.85569
H     -1.69647     0.43996    -2.87057
O     -3.41073    -0.05962    -2.22977
H     -3.13726     0.01125    -1.30345
O      0.74551    -3.08234     2.15273
H     -0.17900    -2.94212     1.88108
O      1.33212    -3.20306     0.85400
H      2.00015    -2.49124     0.86627
