 24
-909.9729508534833
O     -1.90903    -1.44575    -0.83702
H     -2.16568    -0.51135    -0.97746
O     -2.13499    -1.55169     0.57319
H     -1.30500    -1.20258     0.94355
O      0.95140    -0.36945    -1.70473
H      1.92064    -0.35622    -1.71222
O      0.73936    -1.59387    -0.97388
H     -0.24031    -1.67864    -1.02834
O      2.96385    -1.22485     0.70953
H      2.16308    -1.60174     0.30378
O      3.57641    -0.62410    -0.43902
H      4.33111    -1.20630    -0.57971
O     -2.51957     1.12132    -0.59605
H     -1.78082     1.72971    -0.79302
O     -2.58959     1.23582     0.83388
H     -2.90992     0.35020     1.04552
O     -0.18189    -0.09115     1.67912
H     -0.57857     0.75903     1.42342
O      0.93564     0.32228     2.45465
H      1.67056     0.11511     1.86058
O     -0.36688     2.62838    -1.01535
H     -0.22922     3.49806    -0.62802
O      0.53179     1.83718    -0.23073
H      0.57332     1.02362    -0.77123
