 36
-1364.9745263287243
O      2.21772     3.31391     1.39149
H      2.67829     3.59586     2.18611
O      2.60080     1.94702     1.32663
H      1.75687     1.48192     1.52548
O     -3.18272     0.18588    -1.31245
H     -3.57860     0.52751    -0.48355
O     -3.13211     1.35021    -2.13428
H     -2.18649     1.40629    -2.32853
O      3.04884     1.26821    -1.21944
H      3.08195     1.65125    -0.31669
O      3.71998     0.03115    -1.00056
H      4.33065     0.01507    -1.74226
O     -0.16242     0.99811    -2.68224
H     -0.25166     0.04561    -2.47183
O      0.35184     1.46268    -1.43525
H      1.31573     1.34028    -1.53008
O      0.37586     0.47917     1.68068
H      0.08170    -0.45473     1.69129
O     -0.71978     1.09559     0.99662
H     -0.37932     1.21513     0.08201
O     -3.02245    -0.03734     1.58857
H     -2.18548     0.45197     1.45548
O     -3.94788     0.94642     1.13296
H     -4.72225     0.74604     1.66506
O     -1.39219    -1.71625    -0.88609
H     -1.99178    -0.97063    -1.10982
O     -0.23830    -1.44766    -1.68758
H      0.49233    -1.50214    -1.03200
O     -0.30790    -3.31740     1.92757
H     -0.87560    -3.51457     2.67524
O     -0.71039    -1.98627     1.64184
H     -1.04291    -2.07126     0.71705
O      2.26621    -2.91332     0.17043
H      1.70221    -3.16785     0.90946
O      1.80094    -1.57943    -0.00983
H      2.60686    -1.10389    -0.28904
