 36
-1364.9768461282868
O      2.00419     1.38536     1.19016
H      1.53847     1.48747     2.04076
O      1.79319     0.00846     0.87245
H      0.83267     0.00977     0.68161
O     -0.37454    -1.92011    -0.68688
H      0.45569    -1.66621    -1.13076
O     -1.34432    -1.56083    -1.68448
H     -1.62323    -0.69748    -1.32465
O     -0.76961    -0.62361     3.08668
H     -1.03635     0.23100     3.44761
O     -1.89863    -0.91649     2.25953
H     -1.98394    -1.88511     2.38707
O      1.76237    -0.95059    -2.06635
H      1.40583    -0.42769    -2.82099
O      2.81321    -0.09070    -1.60251
H      2.67317    -0.15056    -0.63533
O     -0.81479     2.25026     2.96800
H     -0.78742     2.10491     2.01140
O      0.57299     2.31205     3.27215
H      0.70951     3.24685     3.45700
O     -0.70980     0.62348     0.55548
H     -1.29495    -0.02379     1.02632
O     -1.39785     0.90687    -0.66295
H     -0.69309     1.40632    -1.10992
O      0.60521     0.54767    -3.93252
H      0.76371     1.43821    -3.58544
O     -0.81305     0.41812    -3.79328
H     -0.87670    -0.43415    -3.33799
O      1.88992     2.41620    -2.04574
H      2.36383     1.57048    -1.92357
O      0.88610     2.33008    -1.03513
H      1.39069     2.13387    -0.21889
O     -1.85010    -3.59269     2.16401
H     -2.05225    -4.51001     2.37393
O     -2.38786    -3.45641     0.84749
H     -1.60475    -3.13106     0.38137
