 36
-1364.9789686943564
O     -0.23445     3.57328    -0.23905
H     -0.37524     4.52446    -0.17268
O      0.37248     3.27712     1.01927
H      1.20735     2.87053     0.71703
O     -2.57559    -0.77020     0.03958
H     -2.26291     0.16094     0.06611
O     -2.65379    -1.02087    -1.37052
H     -2.99569    -0.17428    -1.69744
O      1.17966    -1.85763    -0.10813
H      0.87031    -1.57296    -0.99710
O      0.88557    -3.25543    -0.10802
H      0.18880    -3.27903     0.56108
O     -2.28378     1.62785    -2.17928
H     -1.46821     1.19348    -2.50621
O     -2.02355     1.64043    -0.77902
H     -1.34392     2.33349    -0.65716
O      2.32772     1.63769     0.19869
H      2.94477     0.87213     0.24858
O      1.20063     0.99277    -0.38160
H      0.80200     0.55400     0.41638
O      0.06179     0.14009     1.81327
H     -0.35481    -0.71294     2.07142
O     -0.96635     1.07408     2.15676
H     -0.49426     1.89753     1.96006
O      0.00893     0.34175    -2.62708
H      0.51070     0.64771    -1.84141
O     -0.11394    -1.05473    -2.33490
H     -1.04070    -1.12604    -2.03284
O      4.09760    -0.36778     0.24593
H      4.50955    -0.81450    -0.50003
O      3.57983    -1.44630     1.03050
H      2.70134    -1.58648     0.61332
O     -1.14679    -2.13851     2.52544
H     -1.85704    -2.24997     3.16564
O     -1.60909    -2.87374     1.39063
H     -1.97653    -2.14620     0.84173
