 24
-909.9763464520539
O     -2.43442    -1.98089     0.81066
H     -1.64485    -2.01388     0.24583
O     -2.08764    -0.93663     1.71799
H     -2.17288    -0.14632     1.15456
O     -0.12605    -1.58969    -0.66586
H      0.31030    -0.99096    -0.03182
O      0.25125    -1.07174    -1.94700
H      1.21823    -1.14397    -1.90682
O      2.85346    -0.71613    -1.29153
H      3.67046    -0.58348    -1.77675
O      2.72480     0.53999    -0.63136
H      2.43408     0.23314     0.23940
O     -0.12781     1.58496    -2.30299
H     -0.18048     0.61553    -2.21517
O      0.41028     1.95252    -1.03457
H      1.30571     1.57610    -1.06871
O      0.53625    -1.09116     2.15805
H     -0.44200    -1.19833     2.13632
O      0.71003    -0.00299     1.25160
H      0.07227     0.66723     1.57564
O     -1.21014     1.79246     1.61834
H     -1.98032     2.17785     2.04562
O     -1.74687     1.37265     0.36067
H     -1.02888     1.66793    -0.24932
