 32
-1213.3135849715852
O      1.89213    -2.44283     0.59495
H      0.93632    -2.65102     0.48825
O      2.36921    -2.69991    -0.72249
H      3.07622    -3.32827    -0.55045
O     -1.26064    -1.70970     1.34939
H     -0.53672    -1.14248     1.68375
O     -0.69408    -2.26021     0.15914
H     -0.75794    -1.51252    -0.48296
O     -1.98360     0.25215    -2.04262
H     -2.61170    -0.10068    -1.37518
O     -0.76460    -0.20975    -1.46769
H     -0.33769     0.62619    -1.17702
O     -0.92000     2.93205     2.23856
H     -1.77789     3.36681     2.25379
O     -1.03936     2.17303     1.03429
H     -0.37592     2.58393     0.44779
O      1.56214     2.50392    -0.00019
H      1.82356     1.73205     0.53558
O      0.92593     1.84324    -1.09449
H      1.67314     1.33953    -1.48741
O      1.79568    -0.26774    -3.01505
H      0.86971    -0.41304    -2.77641
O      2.41854    -0.19384    -1.73619
H      2.46559    -1.12764    -1.44406
O      0.63170     0.00169     2.12148
H      0.20143     0.86758     2.05262
O      1.77167     0.16706     1.26816
H      1.90438    -0.75373     0.97463
O     -3.34193    -0.69076     0.05965
H     -2.71456    -1.21115     0.60868
O     -3.55775     0.46650     0.85462
H     -2.71335     0.92456     0.74577
