 24
-909.9762051877448
O     -2.51098    -1.16259     0.59956
H     -2.81652    -0.49626    -0.02717
O     -1.83535    -0.34132     1.55952
H     -1.05821    -0.89609     1.76711
O      0.51007    -0.91923    -1.96234
H     -0.35115    -0.60067    -1.63920
O      0.67908    -2.10246    -1.17955
H      0.60543    -2.79839    -1.84296
O      2.51648     0.71585    -0.73770
H      2.20452     0.10900    -1.42383
O      3.29358    -0.16571     0.08317
H      2.77033    -0.16084     0.90451
O     -2.34532     1.70272    -1.18940
H     -1.43805     1.89188    -0.88558
O     -2.12335     0.40188    -1.74716
H     -2.52492     0.48771    -2.61553
O      1.49151    -0.29894     2.12619
H      0.92369     0.47967     1.95539
O      0.62410    -1.37408     1.74844
H      0.88903    -1.55232     0.83123
O      0.13596     1.71545    -0.15406
H      1.06290     1.39079    -0.22599
O     -0.09566     1.70097     1.25839
H     -0.91598     1.17629     1.30668
