 16
-606.6386258552053
O     -2.49618     0.08883     0.43355
H     -2.62128    -0.33515     1.28945
O     -2.02030     1.38794     0.79419
H     -1.12929     1.36924     0.41545
O      2.61467    -1.04138     1.71093
H      2.84219    -0.50103     2.47412
O      1.42491    -0.39025     1.24694
H      1.74291     0.08197     0.45928
O      1.21121     0.80653    -1.37373
H      0.51945     0.12538    -1.54492
O      0.41461     1.84661    -0.79984
H      0.19629     2.37871    -1.57060
O     -0.81994    -0.90791    -1.38934
H     -1.54373    -0.59568    -0.81026
O     -0.30572    -2.00521    -0.64336
H      0.17959    -1.55830     0.06458
