 36
-1364.9730497785997
O     -2.14796     1.50853    -0.09077
H     -2.47953     1.11662    -0.91228
O     -2.13736     2.90711    -0.38295
H     -1.21698     3.11520    -0.17511
O     -1.15022    -1.25198    -1.41846
H     -0.69934    -0.37757    -1.48860
O     -2.52524    -0.91414    -1.46686
H     -2.83570    -1.32208    -0.64808
O      1.22475    -1.18722     0.35547
H      1.88603    -1.88331     0.22882
O      0.54313    -1.57591     1.53889
H     -0.24447    -2.04800     1.19990
O      1.55805     0.79408    -2.12455
H      1.62121    -0.17524    -2.12270
O      0.23998     0.99928    -1.60899
H      0.41150     1.47319    -0.76367
O      1.52723     3.15748     1.12516
H      2.29485     2.76493     0.66085
O      0.52617     2.22618     0.71486
H      0.19034     1.84941     1.55710
O     -0.53761     0.64425     2.62828
H     -0.07632    -0.18059     2.38289
O     -1.88502     0.33173     2.26482
H     -1.99028     0.85815     1.44273
O      1.67150    -2.15146    -2.54625
H      1.66369    -2.46266    -3.45775
O      0.78679    -3.07279    -1.90428
H      0.00844    -2.50170    -1.74898
O      3.30583     1.79774    -0.37233
H      2.78130     1.51894    -1.14823
O      3.50203     0.55589     0.30135
H      2.62733     0.40418     0.68394
O     -1.78952    -2.89291     1.26199
H     -2.00411    -3.52983     1.95087
O     -2.88685    -1.98726     1.32728
H     -2.48716    -1.21623     1.78459
