 32
-1213.3033470943462
O      2.77964    -1.02901    -0.97768
H      2.61607    -0.82143    -0.04388
O      3.32442     0.20304    -1.46307
H      2.55526     0.62083    -1.87928
O     -0.13199     1.24824     2.87911
H     -0.53926     1.43970     2.02037
O     -0.89293     0.13097     3.33924
H     -0.43396    -0.60921     2.91213
O     -2.38725     0.74222    -2.19596
H     -1.75706     0.14263    -2.62523
O     -3.34204    -0.19816    -1.70663
H     -4.15840     0.12860    -2.09525
O     -0.59385     1.69581    -0.08452
H     -1.32077     1.44298    -0.67266
O      0.54444     1.21588    -0.81451
H      1.15653     1.07177    -0.06031
O      2.16255     0.80187     1.23287
H      1.69749     0.90640     2.08184
O      3.31805     1.64578     1.36097
H      3.80357     1.34972     0.57957
O     -0.06187    -1.00417    -2.11831
H      0.24613    -0.19368    -1.65221
O      0.82985    -1.09290    -3.22379
H      1.60530    -1.49296    -2.80723
O      0.33076    -2.47295     0.50164
H      0.32097    -2.34607    -0.45838
O     -0.01257    -1.16387     0.93947
H     -0.99126    -1.12533     0.79747
O     -2.96280     0.27212     1.54719
H     -2.41628     0.14011     2.34170
O     -2.63197    -0.91037     0.80857
H     -3.02901    -0.70050    -0.05521
