 20
-758.3054186931355
O      0.72630    -2.18002    -0.23995
H      0.99079    -1.52271    -0.92307
O      1.90207    -2.19625     0.57620
H      2.01019    -3.14286     0.70612
O     -0.83772    -0.93964     1.54399
H     -0.58376    -1.36336     0.70563
O      0.41707    -0.37596     1.95940
H      1.04263    -1.08083     1.72734
O     -0.15614     1.58592    -0.64408
H     -0.88066     1.89093    -0.05892
O      0.99212     1.68196     0.21309
H      0.79424     0.99702     0.87419
O      0.66619    -0.48379    -3.23410
H      1.38601    -0.23816    -3.82222
O      1.27068    -0.23198    -1.96406
H      0.74998     0.53110    -1.62110
O     -2.72796     0.93353     0.73487
H     -2.09673     0.35776     1.19309
O     -2.15843     2.20699     1.04243
H     -2.92057     2.78565     0.95043
