 24
-909.973079071791
O     -1.75001    -0.89162     1.33740
H     -1.13514    -1.02113     2.07952
O     -0.98461    -1.49543     0.27230
H     -0.72776    -0.70122    -0.22310
O      0.09656    -0.72470    -2.77219
H     -0.82758    -0.53750    -2.54524
O      0.72301    -0.00641    -1.70710
H      1.37776    -0.62633    -1.35687
O      0.61417    -1.37112     2.60934
H      1.07406    -0.55758     2.33880
O      1.13778    -2.25866     1.60334
H      0.38594    -2.23414     0.97922
O     -3.22619     0.74990    -0.85876
H     -3.20063     0.09851    -0.14235
O     -1.84819     0.78098    -1.23373
H     -1.49139     1.55058    -0.75827
O      1.98434     0.46528     1.22537
H      1.78747     1.22586     0.65694
O      2.63317    -0.42039     0.29295
H      2.42589    -1.26447     0.72876
O     -0.28969     2.70626    -0.15939
H     -0.33902     3.63228    -0.41449
O      1.03075     2.36061    -0.57354
H      0.83877     1.67154    -1.23576
