 40
-1516.6466970224676
O      2.78274     0.25174    -0.27222
H      2.02407    -0.33023    -0.50300
O      2.31702     1.50540    -0.76795
H      2.00222     1.94994     0.04624
O     -1.76680    -1.10689    -2.17504
H     -2.58400    -1.24599    -2.66900
O     -0.75193    -1.67109    -3.01466
H     -0.20338    -0.88161    -3.15051
O      1.09668     2.76650     1.26614
H      0.42132     3.28705     0.79477
O      0.21365     1.83081     1.89690
H      0.83279     1.13109     2.19170
O      3.62695    -2.66486     0.90748
H      4.20275    -3.35231     1.25480
O      2.34847    -3.20172     1.23248
H      1.90254    -3.14647     0.36858
O     -3.87841    -0.10469    -0.23164
H     -4.70920     0.12171     0.20209
O     -3.59304     1.04973    -1.02203
H     -3.06861     1.59614    -0.38941
O     -1.52057    -0.59553     2.10657
H     -0.62257    -0.88186     2.36536
O     -1.56709    -1.06753     0.76657
H     -2.43928    -0.73455     0.46754
O      0.45012     1.01915    -2.65599
H      1.12751     1.23197    -1.97458
O     -0.71516     1.68620    -2.16635
H     -1.28712     0.93554    -1.94075
O      0.64058    -1.19693    -0.66307
H     -0.17988    -1.17393    -0.10156
O      0.78359    -2.59029    -0.97148
H      0.23236    -2.60070    -1.77270
O      1.88987    -0.15751     2.51452
H      2.39107    -0.33662     1.70298
O      1.04612    -1.30030     2.68536
H      1.54991    -2.02542     2.26382
O     -1.17604     3.26896    -0.06767
H     -1.01113     2.75395    -0.88129
O     -2.03711     2.38695     0.65681
H     -1.38634     1.93283     1.23377
