 40
-1516.6422014071
O      3.05267    -0.56239     1.22018
H      2.08803    -0.41133     1.32746
O      3.11382    -0.50625    -0.20957
H      4.00012    -0.84266    -0.37530
O     -0.95125     0.85672    -1.98970
H     -1.02515     1.46773    -1.22241
O     -1.71677    -0.25863    -1.52604
H     -1.18577    -1.03298    -1.81317
O     -3.77397     2.48493     2.98078
H     -3.74023     2.48942     3.94105
O     -2.50736     1.89704     2.67438
H     -2.77598     1.09585     2.18224
O      0.45778    -0.23922     1.42027
H      0.14072     0.68666     1.52021
O      0.24268    -0.87667     2.67403
H      0.48675    -1.77459     2.37714
O      0.05494     2.34690     0.91857
H      0.69894     2.43036     0.17570
O     -1.18138     2.44470     0.19312
H     -1.78625     2.67059     0.91666
O      2.82671     2.17049    -0.47711
H      2.87932     1.23171    -0.21634
O      1.59612     2.18765    -1.20335
H      1.83444     1.73690    -2.03814
O      0.93686    -0.11334    -3.57097
H      0.20709     0.33998    -3.09073
O      1.92628     0.91005    -3.57592
H      1.86027     1.26092    -4.46906
O     -0.59945    -3.37800     0.49232
H     -1.21051    -2.71008     0.85183
O      0.64127    -3.00661     1.09930
H      1.12726    -2.66698     0.33132
O     -0.28568    -2.52860    -2.03632
H     -0.54038    -3.07873    -1.26944
O      1.08469    -2.28816    -1.67117
H      1.33555    -1.60916    -2.31576
O     -2.17736    -1.36487     1.49057
H     -1.52648    -1.02586     2.12680
O     -2.69057    -0.14539     0.94307
H     -2.29137    -0.14497     0.04713
