 40
-1516.6418909122642
O      0.71212     3.68745    -3.00875
H     -0.12792     3.90846    -2.57762
O      1.53251     3.51371    -1.85236
H      2.19615     4.20555    -1.94259
O     -0.66183     0.25013     1.29806
H     -1.04899    -0.55064     1.69805
O     -1.30606     1.27074     2.06532
H     -1.41560     1.95231     1.37692
O      1.68197    -1.21712    -0.08508
H      1.55973    -0.24213    -0.02505
O      1.49924    -1.64457     1.26822
H      0.72572    -2.22182     1.17826
O     -1.37541     0.16853    -1.23119
H     -0.92967     0.25570    -0.35568
O     -0.26399     0.03347    -2.13105
H     -0.33934    -0.91662    -2.33473
O      0.63870     0.44998     3.76677
H     -0.04178     0.92810     3.27187
O      1.73595     0.50585     2.85343
H      1.66904    -0.35700     2.39707
O      1.50924     1.45617    -0.11750
H      1.53889     2.07563    -0.86977
O      1.28308     2.35043     0.98618
H      1.50148     1.76122     1.74624
O     -1.59975     3.17620    -1.32598
H     -1.57061     2.22515    -1.52562
O     -1.33494     3.21027     0.07413
H     -0.36516     3.25951     0.12100
O     -1.16537    -2.49847    -2.15639
H     -0.60079    -3.18345    -1.74736
O     -2.21964    -2.33875    -1.19071
H     -2.21623    -1.36157    -1.13187
O     -1.17310    -3.09127     1.19518
H     -1.66337    -2.98316     0.35383
O     -1.74285    -2.05141     1.99051
H     -2.18752    -2.53634     2.69177
O      1.58479    -3.39438    -1.68625
H      1.66976    -2.62363    -1.09485
O      0.57724    -4.11799    -0.98411
H      0.90186    -5.02194    -1.04986
