 36
-1364.9789244481992
O      2.30314     1.92418     0.65615
H      1.68752     2.23498     1.34763
O      2.19218     0.51320     0.83769
H      2.36746     0.16931    -0.05894
O     -3.43868    -2.11255     1.53481
H     -4.18466    -1.82496     2.06856
O     -2.59257    -0.96878     1.62513
H     -2.54769    -0.65824     0.69588
O      0.53677     2.56379     2.55482
H      0.42320     3.10533     3.34416
O     -0.79704     2.18490     2.22040
H     -0.78559     1.24514     2.46722
O      2.30642    -0.57812    -1.62947
H      1.72713    -1.33367    -1.43272
O      1.75225    -0.04645    -2.83600
H      1.74850     0.90325    -2.62244
O      1.45118     2.46284    -1.77610
H      1.83523     2.35376    -0.87302
O      0.06986     2.58747    -1.46825
H     -0.08744     3.52776    -1.58524
O     -0.20033    -1.77048     2.64937
H     -1.12165    -1.57639     2.37767
O      0.27807    -0.47900     3.01195
H      0.99968    -0.33175     2.38006
O     -0.81472    -2.17609    -3.11468
H     -0.65367    -2.37809    -2.17645
O     -0.82279    -0.74904    -3.06835
H      0.13410    -0.54159    -3.10998
O     -0.83501     0.36887    -0.29068
H     -0.57360     1.18042    -0.78157
O     -2.08786     0.01992    -0.88586
H     -1.76039    -0.31735    -1.76389
O     -0.13602    -2.12438    -0.50940
H     -0.34482    -1.18517    -0.31706
O      1.01726    -2.33923     0.31150
H      0.62421    -2.29808     1.21076
