 40
-1516.6398680470456
O      2.25047     2.18277    -2.08606
H      3.11419     2.25670    -2.50631
O      1.94108     0.79509    -2.20406
H      2.12132     0.47938    -1.29290
O      0.93687     0.26086     0.95675
H      0.96937     1.19247     1.23598
O      2.22392     0.07049     0.35169
H      2.30599    -0.91282     0.47592
O      0.05839    -1.52762    -1.19983
H     -0.41250    -0.66800    -1.20618
O     -1.00007    -2.45022    -1.46568
H     -1.04591    -2.90963    -0.61043
O     -3.99079     0.13404    -1.48303
H     -3.36285     0.86697    -1.47645
O     -3.26331    -0.85870    -0.75981
H     -2.79210    -1.35991    -1.44388
O     -0.89548     0.93129    -1.54902
H     -0.11526     1.15740    -2.08282
O     -1.54953     2.19652    -1.38443
H     -1.23583     2.48326    -0.50069
O      1.78953     2.95038     0.42087
H      1.88507     2.74074    -0.52846
O      3.13042     2.95622     0.89179
H      3.28740     2.00629     0.99559
O     -0.76900     3.30234     0.97696
H      0.15664     3.58704     0.90952
O     -0.65038     2.35212     2.03962
H     -1.32598     1.69188     1.78285
O     -2.19858     0.27019     1.40450
H     -2.62956    -0.10677     0.59910
O     -1.35040    -0.80888     1.82419
H     -0.47674    -0.48813     1.51742
O      2.06654    -2.50297     0.73660
H      1.32843    -3.04471     1.06468
O      2.22168    -2.95009    -0.60853
H      1.49157    -2.46877    -1.03961
O     -0.08290    -3.74299     1.80912
H     -0.31358    -4.59238     2.19499
O     -1.27517    -3.39666     1.11953
H     -1.45705    -2.51161     1.50043
