 36
-1364.9702296005685
O      0.10399     1.42003     1.53876
H      0.34284     0.46372     1.48800
O     -0.26499     1.71065     0.19130
H     -1.16705     1.32425     0.12806
O     -1.81029     0.60612     4.03323
H     -2.24491     1.08076     4.74726
O     -2.17170     1.42306     2.91690
H     -1.28966     1.62635     2.53961
O      2.96563     2.01690     1.12529
H      2.05714     2.09919     1.44660
O      2.95280     0.63599     0.75175
H      3.70337     0.26612     1.22900
O      2.46149    -2.08276    -0.26465
H      2.41956    -1.56136    -1.08291
O      3.85301    -2.34746    -0.10898
H      3.87702    -3.28446    -0.32167
O     -1.55994     1.59943    -2.58572
H     -2.37182     2.10381    -2.46095
O     -1.71662     1.12730    -3.93116
H     -1.78515     0.17442    -3.77483
O     -2.73801    -0.47060     1.06170
H     -2.72734     0.19830     1.77741
O     -2.55894     0.35747    -0.09222
H     -2.32347    -0.32025    -0.76376
O      0.56798    -1.17151     1.45688
H      1.27476    -1.51125     0.87759
O     -0.53015    -1.97703     1.01934
H     -1.29850    -1.39446     1.18356
O      2.20963     0.44287    -1.81390
H      2.59600     0.66233    -0.94247
O      0.93803    -0.05872    -1.40964
H      0.52603     0.70725    -0.94667
O     -1.61411    -1.58551    -1.63220
H     -0.99254    -2.03137    -1.03391
O     -0.85216    -1.41855    -2.83134
H     -0.11538    -0.85278    -2.51448
