 20
-758.2981991829027
O     -1.90767     0.46535     1.10031
H     -2.84871     0.55376     0.92593
O     -1.38448     0.73901    -0.20629
H     -0.45217     0.98458     0.00980
O      1.66526    -0.45150    -2.38782
H      2.42963    -0.34542    -2.96234
O      1.49872    -1.87546    -2.41715
H      0.53220    -1.92833    -2.33643
O      0.59102     1.50187     3.07718
H      0.90887     2.00932     3.82958
O     -0.56072     2.25777     2.69472
H     -1.06925     1.55851     2.26058
O      1.88931     0.13040     0.27690
H      1.75704    -0.02806    -0.67324
O      1.11752     1.32498     0.46352
H      1.12692     1.40066     1.43746
O     -1.22935    -2.07222    -2.04872
H     -1.67823    -2.90923    -2.19701
O     -1.33085    -1.97024    -0.61827
H     -1.42579    -1.00725    -0.50957
