 24
-909.9722441276949
O     -0.70027     0.74240     2.02268
H     -1.06385     0.51331     1.13932
O     -1.34260    -0.22718     2.85212
H     -2.18956     0.19075     3.03778
O      1.12374    -0.90081    -1.98310
H      0.47082    -1.15702    -1.31276
O      0.40195     0.06566    -2.74836
H      0.68287     0.90077    -2.32646
O      2.69211    -0.40717     0.47640
H      2.38309    -0.46120    -0.44191
O      2.07343     0.79413     0.91793
H      1.29828     0.49541     1.41955
O     -1.83788    -0.17916    -0.18255
H     -2.11464    -1.10667    -0.11195
O     -2.34111     0.23292    -1.45241
H     -1.52588     0.25645    -1.97643
O     -0.99947    -2.45907     1.20856
H     -1.05490    -1.78763     1.90782
O      0.18262    -2.01986     0.54179
H      0.83464    -2.68973     0.77421
O      1.06042     2.16140    -1.11113
H      1.57295     1.75585    -0.37448
O     -0.21868     2.30252    -0.47859
H     -0.28121     3.25539    -0.35813
