 32
-1213.3039400075522
O      2.36625    -1.83274     0.34903
H      2.93262    -1.12490    -0.02437
O      1.53587    -1.11761     1.26250
H      0.80847    -0.83580     0.67947
O      0.62602    -3.01570    -1.28539
H      1.32561    -2.62909    -0.70795
O      0.83305    -2.31636    -2.50912
H      1.41273    -2.90463    -3.00080
O     -1.23603    -1.37595     0.15963
H     -0.99469    -2.05941    -0.48479
O     -1.95075    -0.43663    -0.65163
H     -2.61846    -0.10987    -0.00394
O     -0.01646     3.16337     0.22721
H      0.29116     2.81113    -0.61838
O     -1.11325     2.29850     0.48503
H     -0.76385     1.73898     1.20944
O      0.74165     0.03787    -1.35492
H      0.71764    -0.73360    -1.96132
O     -0.10412     0.99284    -2.00445
H     -0.94274     0.77800    -1.56378
O      3.90204    -0.08070    -0.99540
H      4.76740     0.25179    -0.73815
O      3.14771     1.14569    -1.06883
H      2.24944     0.77388    -1.19995
O     -1.29617    -0.43017     2.68654
H     -1.25275    -0.85662     1.80933
O     -0.42213     0.68645     2.50640
H      0.44604     0.33569     2.75471
O     -3.59831     0.51168     1.19262
H     -3.21273     0.46728     2.08138
O     -3.77610     1.91724     0.97056
H     -2.88201     2.17861     0.68205
