 36
-1364.975214937108
O      2.61358     1.36881    -2.18888
H      3.43503     1.84993    -2.33964
O      2.27801     1.74273    -0.85076
H      2.55719     0.95897    -0.34592
O     -0.32432    -2.34300     2.98410
H     -0.42155    -2.89074     3.76871
O      0.51090    -1.29082     3.46324
H      1.33654    -1.43766     2.93866
O     -1.40197    -1.36609     0.68924
H     -1.19726    -1.73551     1.56548
O     -2.28363    -2.35781     0.15412
H     -2.84923    -1.76669    -0.36253
O      1.01296    -1.21276    -0.48019
H      0.06748    -1.23290    -0.18523
O      0.98149    -1.70232    -1.82123
H      1.04964    -0.85399    -2.27948
O     -2.69049    -0.21065    -2.50275
H     -3.35537     0.21016    -3.05675
O     -3.29669    -0.21244    -1.21544
H     -2.79910     0.49836    -0.75372
O     -0.78436     2.26395    -0.11978
H     -0.52684     1.75052    -0.91518
O     -1.99579     1.60536     0.27260
H     -1.70194     1.22792     1.12532
O      2.46953    -1.34628     1.68994
H      2.01833    -1.50019     0.83118
O      2.90162     0.00578     1.53601
H      2.10477     0.50639     1.80350
O      0.77357     1.57342     1.89119
H      0.45697     1.99800     1.06664
O     -0.45757     0.99418     2.34821
H     -0.13076     0.20348     2.81465
O     -0.09137     1.54058    -3.47270
H      0.83314     1.78343    -3.32633
O     -0.27290     0.79678    -2.27024
H     -1.08754     0.28453    -2.45339
