 28
-1061.645195854311
O     -1.35019     0.61742     0.97507
H     -1.24731     1.13983     0.15196
O     -1.95399    -0.59182     0.50484
H     -1.45125    -1.27649     0.99677
O     -0.76044    -2.67623     1.61172
H     -1.01836    -3.59231     1.47399
O      0.63982    -2.69417     1.33860
H      0.67149    -2.24673     0.45869
O      1.22777    -0.33207     2.98632
H      1.16834    -1.26816     2.75435
O      1.19498     0.26049     1.68838
H      2.34742    -0.71167     0.19754
O      1.67351     2.68590     0.10652
H      1.70095     2.00083     0.79689
O      1.09607     3.78364     0.81584
H      1.82680     4.40925     0.81064
O     -2.37754    -0.20042    -2.82367
H     -2.70840    -0.61841    -3.62306
O     -1.96075    -1.33995    -2.06870
H     -2.08595    -1.00682    -1.16071
O      0.92346    -1.27095    -0.86057
H      0.65566    -0.43498    -1.31110
O      2.33004    -1.11851    -0.68224
H      0.23005     0.37603     1.53313
O     -0.56444     1.94595    -1.23042
H      0.26244     2.38265    -0.94847
O     -0.06253     0.90965    -2.08694
H     -0.89464     0.59761    -2.49970
