 36
-1364.9763115362198
O      2.34812     1.52970     0.19617
H      2.09154     0.97431    -0.57297
O      3.16614     2.50650    -0.43456
H      4.02473     2.27921    -0.06727
O     -1.92532    -2.14778     0.12548
H     -2.21817    -1.41652    -0.46139
O     -2.57785    -1.83224     1.35713
H     -1.89133    -1.27701     1.78156
O     -0.04432     0.56022     3.14945
H     -0.02747     1.38838     2.64290
O     -0.59941    -0.28154     2.14818
H      0.18953    -0.54865     1.63342
O      3.76280    -1.35300    -0.52190
H      4.25022    -2.14304    -0.78139
O      4.40409    -0.32450    -1.26650
H      3.70160    -0.09587    -1.89108
O     -0.04578     2.31609     1.12036
H      0.88192     2.19392     0.83278
O     -0.72065     1.69722     0.02464
H     -1.58473     1.44735     0.41820
O     -4.22021     0.24019     0.89839
H     -3.83138    -0.64961     1.02761
O     -3.07595     1.05196     1.15482
H     -2.91420     0.93181     2.10079
O      0.23817     0.69630    -2.23293
H     -0.08600     1.08923    -1.39311
O      1.41079    -0.00243    -1.80837
H      1.04962    -0.86188    -1.48953
O     -2.49751    -0.17935    -1.56050
H     -3.33453     0.24567    -1.78547
O     -2.03050    -0.68579    -2.81463
H     -1.19677    -0.18799    -2.87851
O      1.31243    -1.38089     0.66571
H      2.24207    -1.35931     0.37472
O      0.71559    -2.12075    -0.40285
H     -0.21782    -2.21830    -0.10287
