 32
-1213.3024705500427
O      3.04441    -0.37231    -0.97326
H      2.12656    -0.24600    -1.28693
O      2.82031    -0.45179     0.44154
H      2.63777     0.48261     0.64165
O     -0.22472    -0.95760     1.21338
H     -0.13741    -0.23729     0.55919
O      0.60534    -1.98752     0.67897
H      1.47671    -1.53536     0.60965
O     -0.17682     0.89060    -2.31471
H     -1.06108     0.86392    -1.91578
O      0.46516    -0.11982    -1.54685
H      0.06139    -0.94854    -1.89165
O      3.16468     2.52579    -0.99344
H      3.51287     1.64778    -1.21679
O      2.62401     2.22584     0.29527
H      3.08891     2.83773     0.87746
O     -0.27148     1.90010     0.53611
H      0.51841     2.28797     0.13446
O      0.03112     2.00825     1.93321
H     -0.77046     1.60763     2.29926
O     -0.55089    -2.45829    -2.29000
H     -0.01464    -3.19576    -2.60499
O     -1.35034    -3.05525    -1.27064
H     -0.87712    -2.74958    -0.47766
O     -2.49255    -0.43562    -0.99490
H     -2.79085    -1.32464    -1.24519
O     -3.66431     0.18286    -0.45148
H     -3.46138     0.15621     0.49374
O     -2.26475     0.62808     3.11997
H     -2.11377     0.25126     3.99262
O     -2.63237    -0.52492     2.35702
H     -1.77903    -0.77370     1.94046
