 32
-1213.3090333870337
O      2.33614     0.72866     1.23774
H      2.79190     0.15336     0.60065
O      1.86329     1.72144     0.31389
H      1.04275     2.03072     0.74965
O     -0.76458    -0.52550    -1.01402
H      0.14359    -0.33025    -1.33411
O     -0.63938    -1.79985    -0.38974
H     -0.37955    -1.53910     0.52269
O     -1.60879     2.35002    -1.36514
H     -1.59254     1.42577    -1.06605
O     -0.25016     2.51163    -1.76609
H     -0.34084     2.66515    -2.71246
O     -1.74294     2.77468     1.47833
H     -1.72098     3.07521     0.56199
O     -0.39386     2.32460     1.62972
H     -0.53116     1.49231     2.12821
O      1.72853     0.21943    -1.82124
H      1.77590     1.03245    -1.28329
O      2.67960    -0.60376    -1.12244
H      2.55010    -1.44804    -1.59071
O      1.92942    -2.85663    -2.35625
H      2.38515    -3.63612    -2.68589
O      1.50745    -3.30567    -1.06785
H      0.67737    -2.80446    -0.97294
O     -0.65906    -0.12660     2.64309
H     -1.49426    -0.52479     2.33004
O      0.30190    -0.91683     1.92565
H      1.02875    -0.27176     1.78497
O     -3.22695    -0.68549     0.42027
H     -2.66916    -1.19825    -0.17947
O     -2.87822    -1.29401     1.66529
H     -3.73624    -1.56231     2.00806
