 32
-1213.3178640600772
O      1.95551     0.90155     1.15896
H      1.93714     0.74677     0.19096
O      1.65696     2.29783     1.26004
H      0.74512     2.26699     1.60583
O     -1.19094    -1.62970    -1.07551
H     -0.57874    -0.92273    -1.37604
O     -0.34559    -2.53344    -0.36984
H     -0.08730    -2.01175     0.41979
O     -0.29104     3.59319    -1.03095
H     -0.74216     2.91479    -0.50434
O      0.97403     2.97650    -1.26874
H      1.38407     2.98633    -0.38159
O     -1.39571     1.55810     0.47670
H     -2.04610     0.84562     0.59979
O     -0.97331     1.83075     1.82419
H     -0.87444     0.92466     2.17722
O      0.37697     0.45809    -1.74863
H      0.47495     1.44225    -1.72329
O      1.72052     0.08657    -1.38736
H      1.86241    -0.64884    -2.01675
O      1.71204    -2.06658    -2.92524
H      2.24424    -2.53349    -3.57446
O      1.96972    -2.82558    -1.74237
H      1.07752    -2.81878    -1.34560
O     -0.64861    -0.70616     2.58904
H     -1.37789    -1.29894     2.33031
O      0.43311    -1.21701     1.80848
H      0.99485    -0.42117     1.67649
O     -2.86406    -0.80259     0.75848
H     -2.35404    -1.25736     0.04599
O     -2.90844    -1.82084     1.74674
H     -3.76884    -1.65375     2.13761
