 32
-1213.3105290835438
O      1.95271     0.75346     0.45727
H      2.22207     0.29509    -0.36401
O      2.52068    -0.09160     1.46228
H      1.98980     0.17768     2.22947
O      0.59035    -2.45806     0.51474
H      0.41388    -2.11005    -0.37116
O      2.01731    -2.51731     0.52812
H      2.24206    -1.66502     0.96875
O     -2.11373     1.88006    -2.92852
H     -2.49704     2.24522    -3.72984
O     -3.26922     1.57265    -2.15217
H     -3.04028     2.02619    -1.32690
O      0.83138     0.59208     3.46541
H      0.91461     1.20964     4.19710
O     -0.30010     1.12644     2.78333
H     -0.78761     0.29574     2.59355
O     -0.25575    -0.05780    -2.60588
H     -0.96904     0.59981    -2.74293
O     -0.38984    -0.31315    -1.21328
H     -0.24950     0.57228    -0.80123
O      2.62339    -1.89643    -2.06841
H      2.60581    -2.20305    -1.14589
O      2.31559    -0.51055    -1.88304
H      1.50618    -0.41223    -2.41673
O     -2.15745     1.93148     0.50391
H     -2.34872     0.99678     0.71568
O     -0.75221     1.84794     0.22557
H     -0.38516     1.78718     1.12859
O     -1.30751    -1.12851     1.82075
H     -0.58418    -1.66433     1.42808
O     -2.15003    -0.79796     0.71764
H     -1.52822    -0.76966    -0.03661
