 16
-606.6302925104387
O     -1.53839     0.61476     0.65208
H     -1.95396     0.60033     1.51811
O     -0.40589     1.46544     0.90565
H     -0.20718     1.73217    -0.00490
O      0.41736    -0.70481     2.59111
H      0.50173     0.15174     2.15092
O      1.77762    -1.15917     2.56039
H      1.73381    -1.85538     1.89838
O     -0.58092     2.13566    -2.83479
H      0.07164     2.38201    -3.49736
O      0.23514     1.46171    -1.87704
H     -0.04493     0.53857    -1.98720
O     -0.47780    -1.26649    -1.18202
H     -0.70383    -0.93147    -0.30017
O      0.47642    -2.28895    -0.87614
H     -0.04641    -3.08644    -1.00688
