 40
-1516.6402254707373
O      1.22667     1.75533    -1.30039
H      0.25522     1.67146    -1.17672
O      1.71455     1.49871     0.02015
H      2.24832     0.68452    -0.10204
O      1.52731    -0.87053     3.03899
H      0.60078    -0.62605     2.86271
O      1.59838    -2.19011     2.50329
H      2.01205    -2.04203     1.62898
O     -0.80533    -3.08972     1.87351
H      0.06965    -2.84228     2.27022
O     -0.42851    -3.26567     0.50279
H     -0.17227    -4.19465     0.48493
O     -0.61659     2.42989     1.33016
H      0.18993     2.95034     1.20897
O     -1.43990     3.27750     2.14714
H     -2.28920     2.85547     1.95672
O     -3.44325     1.35841     1.35454
H     -2.80800     0.61996     1.24880
O     -3.67414     1.74484    -0.00046
H     -4.53895     1.37097    -0.19753
O      3.00448    -0.45525    -3.11706
H      3.67628     0.01074    -3.62174
O      1.83663     0.29640    -3.40457
H      1.75212     0.87417    -2.60893
O     -1.91699     1.20514    -2.62829
H     -1.59787     0.30012    -2.78488
O     -1.39732     1.37129    -1.30380
H     -2.21417     1.59196    -0.80873
O      2.30172    -1.83772    -0.08676
H      1.44160    -1.58412    -0.49268
O      3.14499    -0.74140    -0.44804
H      3.14757    -0.79309    -1.42257
O     -1.47948    -0.43840     1.20374
H     -1.41855    -1.40459     1.35780
O     -0.95382     0.09278     2.43048
H     -0.71474     0.99946     2.11715
O     -0.43943    -1.02616    -2.61817
H      0.32796    -0.67396    -3.09785
O      0.08764    -1.00727    -1.28852
H     -0.60308    -0.52920    -0.79292
