 28
-1061.6479771515826
O      0.46159    -1.09925    -2.77927
H      0.39966    -0.92643    -3.72325
O      1.65276    -0.41201    -2.40968
H      1.29176     0.40595    -1.99899
O      0.20039    -0.96858     2.48970
H     -0.75699    -1.14542     2.41643
O      0.57089    -1.27685     1.13645
H      1.53724    -1.24275     1.18277
O      0.37987     1.51555     1.53790
H      0.32201     0.65493     1.99967
O     -0.95784     2.03125     1.63799
H      0.83749     1.46514    -0.13469
O     -1.53571    -0.99933    -0.98832
H     -0.74628    -0.97155    -1.55638
O     -2.23840     0.17747    -1.39947
H     -2.75866     0.30796    -0.58437
O     -2.82872     0.14483     1.21351
H     -2.13423     0.74742     1.54244
O     -2.29507    -1.14314     1.52991
H     -1.98041    -1.40115     0.64391
O     -0.58259     2.28657    -1.04672
H     -1.14483     1.53564    -1.32052
O      0.72406     1.70066    -1.07950
H     -1.00879     2.44084     0.75686
O      3.00044    -1.78144    -0.27442
H      2.63878    -1.33577    -1.05281
O      3.41391    -0.64684     0.49417
H      4.19058    -1.00475     0.93429
