 32
-1213.3116423300885
O      0.10322    -2.47889     1.56081
H     -0.61838    -1.87912     1.25975
O      0.27862    -3.28923     0.39883
H      0.10565    -4.16480     0.75633
O      1.53726    -0.58679    -2.06414
H      0.80180    -1.17705    -2.33665
O      1.23604    -0.48341    -0.66978
H      1.92954    -1.01192    -0.23964
O     -1.75638    -0.79944     0.64217
H     -2.00146     0.03646     1.07522
O     -2.99167    -1.33910     0.16908
H     -2.84039    -1.24682    -0.78771
O     -0.92037     1.29547     2.25092
H     -0.02970     0.90184     2.27710
O     -0.95652     1.87442     0.95341
H     -0.41295     2.67805     1.06543
O      0.93758     3.73383     0.67703
H      1.64754     4.28564     1.01798
O      1.65871     2.57529     0.26045
H      1.26653     2.42211    -0.62155
O     -0.69866    -2.02872    -2.26189
H     -0.72576    -2.36872    -1.35562
O     -1.79598    -1.11836    -2.28536
H     -1.37409    -0.24138    -2.16370
O      1.67750     0.32376     2.25310
H      1.92829     0.88595     1.50495
O      2.29621    -0.90626     1.90158
H      1.53548    -1.51440     1.92153
O      0.35254     1.82523    -2.04475
H      0.80602     0.98192    -2.23574
O     -0.95782     1.36584    -1.70615
H     -0.96877     1.45884    -0.73591
