 36
-1364.9758762775105
O      0.85384    -0.03220     2.56752
H      1.69358     0.35782     2.23916
O      0.99089    -1.43042     2.28137
H      1.23987    -1.41336     1.33117
O     -1.49360    -2.89660     0.51097
H     -2.27889    -2.39723     0.23703
O     -1.63488    -2.93051     1.93060
H     -0.83572    -2.46552     2.21603
O      1.59623    -1.30604    -0.28643
H      1.09841    -0.74723    -0.92394
O      1.34806    -2.63727    -0.68161
H      0.45011    -2.77163    -0.33411
O     -1.32877     0.58630    -2.06848
H     -2.28536     0.57893    -1.88780
O     -0.92387    -0.62489    -1.42275
H     -1.12682    -0.42585    -0.47766
O     -3.83672    -1.23980    -0.74090
H     -4.78377    -1.38353    -0.63253
O     -3.75497     0.18464    -0.75647
H     -3.33082     0.35840     0.09799
O     -0.24113     2.71372    -0.56903
H     -0.04945     2.08864    -1.29084
O      1.05538     2.93790    -0.03615
H      1.29006     3.79116    -0.41723
O      2.66785     1.98255    -2.14426
H      3.29879     1.58773    -1.52508
O      1.58872     1.05672    -2.00600
H      1.47444     0.70460    -2.89689
O     -1.36154     0.07529     1.11790
H     -0.61081     0.07399     1.77035
O     -1.86710     1.41607     1.18625
H     -1.29966     1.86681     0.53551
O      3.55298     0.53960     0.26403
H      2.95703    -0.20904     0.10140
O      2.82741     1.27584     1.24785
H      2.27503     1.86672     0.70619
