 32
-1213.3137092944671
O      2.17971     1.08467     0.32640
H      2.56397     0.42408     0.93276
O      2.58027     0.54988    -0.94031
H      1.89971     0.96964    -1.50827
O      0.57346    -1.88841    -1.40680
H      0.02559    -2.09297    -0.62247
O      1.89428    -2.04202    -0.87029
H      2.21627    -1.11815    -0.91940
O     -2.86845     0.18112    -0.41993
H     -2.60847    -0.66129     0.00609
O     -2.96739    -0.18308    -1.79405
H     -2.08216     0.07069    -2.11670
O     -0.31169     0.56582     1.02001
H      0.54498     0.87281     0.64034
O     -0.31820     1.20942     2.29166
H     -0.84118     1.97773     2.02639
O      0.34574     1.46863    -1.97632
H     -0.31122     1.90525    -1.39953
O     -0.40052     0.35798    -2.47368
H      0.05106    -0.41154    -2.06285
O      2.14447    -1.92482     2.05033
H      2.13411    -2.29780     1.15392
O      3.12796    -0.90669     1.89309
H      3.80435    -1.15420     2.53405
O     -0.69348    -2.02004     0.96610
H     -0.55558    -1.05015     1.14372
O     -2.10422    -2.08728     0.78073
H     -2.39717    -2.49914     1.59840
O     -1.68806     2.99179     0.81285
H     -1.70795     3.93991     0.66292
O     -1.68018     2.50899    -0.52800
H     -2.24087     1.69655    -0.42731
