 24
-909.9821884515256
O     -0.96748    -1.30156     0.46900
H     -0.21540    -0.91169     0.96834
O     -1.85960    -0.19318     0.29822
H     -1.46824     0.27688    -0.47917
O      1.94952     1.11542    -0.98386
H      1.87243     1.43258    -0.06552
O      2.39583    -0.22072    -0.72994
H      1.79028    -0.74662    -1.28067
O      0.87384    -2.02194    -1.93698
H      1.01026    -2.97398    -1.94997
O     -0.53959    -1.91101    -2.04879
H     -0.79661    -1.80527    -1.10242
O     -0.67295     1.13637    -1.64527
H      0.30082     1.18813    -1.54969
O     -0.82291     0.64963    -2.97958
H     -0.82880    -0.30480    -2.81311
O      1.32196     1.07499     1.59507
H      0.41995     1.29636     1.89626
O      1.27702    -0.35996     1.62914
H      1.92975    -0.54307     0.92960
O     -1.25341     1.51108     2.29893
H     -1.71440     0.88913     1.69868
O     -1.58646     0.97303     3.57353
H     -2.00370     1.73531     3.98214
