 32
-1213.3029132321103
O      1.46121    -0.16093     1.72174
H      2.03341    -0.92943     1.82634
O      2.33154     0.91919     2.08752
H      1.88011     1.64937     1.63270
O      1.35686    -1.91743    -2.25220
H      0.43177    -2.17521    -2.35855
O      1.41725    -1.62548    -0.84513
H      1.80998    -0.72266    -0.85788
O     -1.60917    -1.90762    -2.57280
H     -1.65291    -1.80912    -1.59839
O     -1.69297    -0.53918    -2.98656
H     -2.58330    -0.48856    -3.35179
O     -1.91694     1.22679    -0.09669
H     -1.67556     0.47341     0.47508
O     -0.88275     1.20296    -1.07274
H     -1.19868     0.55451    -1.73355
O      1.99499     0.96650    -1.08924
H      1.19943     1.36784    -0.69351
O      1.85392     1.29889    -2.47232
H      1.51484     0.46886    -2.83897
O     -1.09270    -0.06208     2.49315
H     -0.13080    -0.04368     2.29919
O     -1.16227    -1.15160     3.41839
H     -1.58685    -0.73104     4.17168
O     -1.34579    -2.80835     0.72737
H     -1.49447    -2.44507     1.60922
O     -1.08403    -1.60395     0.01429
H     -0.10310    -1.62216    -0.09515
O      0.88458     2.97347     0.99969
H      1.08225     3.91300     1.07391
O     -0.35596     2.85713     1.69564
H     -0.93010     2.51458     0.99068
