 24
-909.9756739766133
O     -1.93231    -1.05619     0.33507
H     -1.90145    -0.16729     0.73224
O     -1.53393    -0.79101    -1.01323
H     -0.66583    -1.23778    -1.07050
O      0.99120    -1.73458    -1.27771
H      1.50865    -1.36826    -0.52886
O      1.45992    -0.90206    -2.34539
H      1.86139    -1.55750    -2.92473
O      0.41145    -1.12606     2.62011
H      1.31170    -0.88299     2.36682
O      0.15113    -2.15141     1.65127
H     -0.66558    -1.81770     1.23257
O     -0.99530     1.01691     1.82901
H     -0.49991     0.31992     2.29925
O      0.04350     1.53839     0.98733
H     -0.46135     1.85537     0.21029
O      2.98366     0.80279    -0.17521
H      2.79680     0.56827    -1.09356
O      2.08160    -0.06308     0.51062
H      1.31586     0.54279     0.66271
O     -2.54071     2.48836    -1.33494
H     -2.50199     3.05168    -2.11243
O     -1.26001     1.86847    -1.39165
H     -1.49893     0.92115    -1.45444
