 32
-1213.3103390529134
O      1.30174    -0.70510     1.46155
H      2.17169    -0.81110     1.04414
O      1.51334    -1.04994     2.83324
H      0.77506    -0.55773     3.21494
O     -0.60538    -2.25521     0.41812
H     -0.03807    -1.66121     0.95524
O     -1.92996    -1.80663     0.71890
H     -2.03090    -1.08571     0.07973
O      1.05417     1.52993    -0.79438
H      0.18278     1.09287    -0.91016
O      1.01075     2.08519     0.51832
H      0.86712     1.30432     1.08114
O     -1.88678     3.31263    -0.65495
H     -2.50272     4.03486    -0.50878
O     -1.52436     2.98225     0.68417
H     -0.55398     2.99758     0.60302
O     -1.14234     0.12842    -1.34293
H     -0.86317    -0.49443    -2.03755
O     -2.17403     0.89329    -1.97829
H     -2.04762     1.73874    -1.52216
O      2.99952    -1.21285    -0.71956
H      2.50507    -2.00961    -0.98168
O      2.66718    -0.37117    -1.82847
H      2.23907     0.38713    -1.38751
O      0.54435    -1.72658    -2.69695
H      1.33122    -1.15201    -2.71676
O      1.00091    -2.67329    -1.72199
H      0.32279    -2.58827    -1.02691
O     -0.92404     0.66421     2.31872
H     -1.49746     1.34965     1.93606
O     -1.85050    -0.22580     2.95239
H     -1.94809    -0.91679     2.26951
