 36
-1364.9722465124003
O      2.33757     3.07971     0.23783
H      2.10386     2.36675     0.86557
O      3.54013     2.55295    -0.31385
H      4.22138     3.08801     0.10581
O     -4.63947    -1.77101    -0.76554
H     -5.45894    -2.09844    -1.14912
O     -3.89906    -2.98855    -0.61374
H     -3.30310    -2.74159     0.11998
O      3.72628    -0.07511    -0.63903
H      3.60137     0.87579    -0.45713
O      3.79443    -0.62315     0.68445
H      3.21411    -1.39353     0.54424
O      0.22197     2.78003    -1.62479
H      1.15262     2.96528    -1.43792
O      0.03993     1.59526    -0.85518
H     -0.23359     1.93697     0.01327
O     -2.46918     0.70135    -1.15268
H     -1.55979     1.02669    -1.31608
O     -2.36535    -0.67545    -1.53915
H     -3.28820    -0.98455    -1.40429
O     -1.28538     1.41933     1.78039
H     -0.54468     0.80234     1.92738
O     -2.36667     0.51198     1.53334
H     -2.57360     0.72884     0.60443
O      1.40902    -1.18347    -1.31219
H      2.28941    -0.79483    -1.45171
O      1.69651    -2.05661    -0.20534
H      0.79210    -2.35727     0.00456
O      2.00432     0.95308     1.85903
H      2.80082     0.40961     1.68239
O      0.96966     0.00069     1.61410
H      1.06326    -0.20839     0.66486
O     -1.99711    -2.16412     1.10612
H     -2.05539    -1.22213     1.36348
O     -0.94193    -2.14392     0.14731
H     -1.34767    -1.62260    -0.57764
