 40
-1516.6459036785789
O      1.20383     2.71211    -0.73463
H      1.84127     3.39793    -0.95287
O      1.76164     2.16013     0.45733
H      0.99307     2.26113     1.07011
O      0.08824    -1.29044    -0.90147
H      0.16817    -0.61948    -1.62732
O     -1.31831    -1.59984    -0.89257
H     -1.70037    -0.76911    -0.53578
O     -2.01481     0.76781     0.04914
H     -2.21573     1.35378    -0.71295
O     -3.31673     0.41976     0.50451
H     -3.03029    -0.15364     1.25583
O     -0.47918     1.99860     1.81229
H     -1.14316     1.46732     1.32238
O     -0.05652     1.14101     2.87532
H      0.50317     0.48333     2.40578
O     -2.25262     2.30470    -2.12099
H     -2.76636     3.06989    -2.39967
O     -2.35417     1.42491    -3.24584
H     -1.41379     1.25564    -3.40583
O      0.28781     0.88540    -2.37697
H      0.45355     1.64392    -1.77926
O      1.48176     0.86330    -3.14321
H      2.09483     0.52882    -2.46290
O      2.85970    -0.05496    -1.00852
H      2.76524     0.50913    -0.22510
O      3.79248    -1.04110    -0.58152
H      3.22330    -1.81878    -0.50932
O      1.13735    -0.67839     1.42328
H      0.77251    -0.73873     0.50736
O      0.40095    -1.74045     2.03525
H      0.86046    -2.52791     1.67341
O      1.66069    -3.50067    -0.56309
H      0.94814    -2.83943    -0.67816
O      1.50587    -3.86590     0.80831
H      1.09319    -4.73244     0.74839
O     -2.17729    -0.39055     3.61003
H     -1.46300     0.26015     3.48047
O     -2.16958    -1.04390     2.34213
H     -1.25891    -1.38980     2.28789
