 36
-1364.975881238666
O      2.59414    -1.75141    -0.68735
H      2.22848    -0.90315    -0.98092
O      2.59091    -1.60981     0.73147
H      1.68736    -1.89135     1.00066
O      1.23236    -0.04209    -2.59411
H      0.87494    -0.89242    -2.88601
O      0.04310     0.73494    -2.47155
H      0.17531     1.16018    -1.59281
O      2.51895     1.04191     2.69124
H      3.18164     1.69250     2.93628
O      2.68807     0.99709     1.27562
H      2.86628     0.03720     1.13728
O      0.49170    -2.81927    -2.35874
H      1.18804    -2.85064    -1.68776
O     -0.67476    -2.91193    -1.52993
H     -1.34128    -2.49669    -2.09814
O     -2.15437    -0.72633    -2.58589
H     -1.36992    -0.13973    -2.67560
O     -2.67360    -0.24059    -1.34802
H     -3.61026    -0.13994    -1.54628
O     -3.55548     1.75626     0.98506
H     -3.01051     1.70718     1.78513
O     -2.63826     2.33369     0.05301
H     -2.37754     1.55710    -0.46898
O     -0.93108     1.09057     2.37786
H     -0.81377     0.76103     1.46740
O     -0.06312     0.23003     3.11517
H      0.80057     0.67196     3.04015
O      0.44297     1.74208    -0.06622
H      1.26932     1.53077     0.41818
O      0.21063     3.10624     0.27935
H     -0.75157     3.07605     0.39833
O     -0.33889    -1.08941     0.46634
H     -0.51417    -1.76518    -0.21922
O      0.07910    -1.89858     1.57564
H     -0.03569    -1.23296     2.29027
