 36
-1364.9719994468564
O      0.86546     2.12475    -0.30923
H      1.17650     1.74411    -1.17069
O      1.92838     1.70398     0.55367
H      1.55524     1.89724     1.43298
O     -0.94543    -1.20060    -0.85721
H     -0.61666    -2.10720    -0.98198
O     -1.25536    -0.82236    -2.20481
H     -2.01178    -0.22870    -2.02111
O     -0.24535     1.44836     3.36226
H     -0.27424     0.53245     3.02047
O      1.10392     1.79759     3.10680
H      1.35484     2.24512     3.91962
O     -0.45822    -0.87995     2.10243
H     -0.76703    -0.62566     1.20706
O      0.45161    -1.95242     1.85814
H      1.24758    -1.47359     1.54612
O     -1.47522     1.41027     0.73569
H     -0.64271     1.67477     0.28278
O     -1.79190     2.59591     1.46830
H     -1.38630     2.34729     2.31047
O     -3.18653     0.76257    -1.19437
H     -2.70047     1.10632    -0.40889
O     -3.49337     1.95699    -1.91202
H     -4.45343     1.93771    -1.88323
O      2.48596    -0.89706     0.50569
H      2.34853     0.06397     0.34900
O      2.37996    -1.43204    -0.81813
H      2.23542    -2.37116    -0.62773
O      0.82240     0.46791    -3.41224
H      0.08978     0.04475    -2.93285
O      1.74825     0.74386    -2.35742
H      1.98416    -0.14232    -2.02897
O      0.01499    -3.75302    -1.00525
H     -0.36563    -4.63676    -1.00494
O      1.06865    -3.85688    -0.05636
H      0.68220    -3.38492     0.70384
