 36
-1364.9789145258883
O      1.44608     0.14017    -3.87980
H      2.23622    -0.25594    -4.25828
O      1.97574     0.90615    -2.80196
H      2.00469     0.23828    -2.06786
O     -2.31116    -1.15274    -0.27678
H     -2.23946    -0.64704    -1.11569
O     -2.90454    -0.20828     0.61997
H     -2.95903    -0.76250     1.42309
O     -1.47525     0.07790    -2.48726
H     -0.95555     0.85806    -2.23296
O     -0.50435    -0.96874    -2.43047
H      0.12589    -0.70031    -3.12364
O      0.05347     2.74433    -2.30606
H      0.85965     2.25547    -2.56014
O      0.58749     3.67892    -1.37026
H      0.16629     4.49029    -1.66670
O      1.99940    -0.77756    -0.79615
H      1.27511    -1.32514    -0.40360
O      2.20626     0.24322     0.17202
H      1.34853     0.71883     0.14247
O     -0.11421     1.48615     0.17073
H     -0.21661     2.41302    -0.11547
O     -0.81446     1.44166     1.41405
H     -1.60825     0.93169     1.16031
O     -1.71882    -0.60630     3.60639
H     -0.83997    -0.90895     3.87838
O     -2.20963    -1.66571     2.78246
H     -1.39159    -2.05478     2.40253
O      1.27016     0.10817     3.31415
H      0.68838     0.50278     2.64359
O      1.98125    -0.88538     2.58448
H      2.31282    -0.40174     1.79946
O      0.05417    -2.51585     1.66918
H      0.86141    -2.04881     1.97713
O      0.06000    -2.20470     0.27764
H     -0.85247    -1.86060     0.11880
