 32
-1213.3102113490959
O      2.68793    -1.30242     1.14209
H      2.80552    -0.60618     0.47244
O      2.13556    -0.54754     2.22570
H      1.21819    -0.89344     2.25742
O     -3.15387    -0.06163     0.33884
H     -2.94021    -0.19531     1.27410
O     -2.41886    -1.14512    -0.24337
H     -2.33529    -0.86247    -1.17559
O     -1.88938    -0.62173    -2.80483
H     -1.82512    -1.30346    -3.48409
O     -0.60983     0.00621    -2.85948
H     -0.14728    -0.44338    -2.13165
O     -1.07829     1.49565    -0.31176
H     -2.00487     1.19070    -0.19435
O     -1.13239     2.45686    -1.35614
H     -0.80104     1.92319    -2.09167
O      1.70619     1.96925     1.41099
H      1.99989     1.13655     1.83428
O      0.34146     2.02113     1.83841
H     -0.12399     1.97881     0.97449
O      0.50619    -1.68571    -0.70655
H      1.23195    -1.98651    -0.13245
O     -0.20871    -2.88904    -0.99141
H     -1.02049    -2.71334    -0.49206
O      1.78888     1.31246    -1.21336
H      1.76323     1.77903    -0.34977
O      2.78875     0.32391    -0.97146
H      3.54272     0.66280    -1.46648
O     -1.17442    -0.13089     2.61564
H     -0.59458     0.64780     2.49714
O     -0.43403    -1.14774     1.93449
H     -0.59954    -0.94057     0.99833
