 36
-1364.9746800877956
O      2.84880     2.38543     0.36150
H      3.80965     2.44945     0.35985
O      2.53350     2.02018     1.70211
H      2.38555     1.05655     1.62263
O     -2.80186    -2.36948    -0.63399
H     -2.12359    -1.71664    -0.89790
O     -2.54026    -2.52867     0.76032
H     -2.47823    -1.60934     1.08684
O     -1.51357    -0.29584     1.81673
H     -1.06535     0.52255     1.50335
O     -0.57537    -0.78957     2.78275
H     -0.68375    -1.75705     2.69322
O      1.86960    -0.62327     1.67642
H      1.02957    -0.58798     2.18166
O      1.41584    -1.05910     0.39403
H      1.02699    -1.93687     0.56910
O     -0.33496     1.97169     1.10541
H      0.45512     2.52402     1.18217
O     -1.11823     2.65252     0.12211
H     -1.31942     1.92018    -0.49318
O     -0.97382    -0.52527    -1.27146
H     -0.19996    -0.17707    -0.79098
O     -1.66301     0.67036    -1.63780
H     -1.32283     0.82625    -2.54594
O      1.27198     1.20059    -1.36867
H      1.77598     1.76403    -0.74844
O      2.29815     0.26517    -1.73368
H      2.19622    -0.35044    -0.98887
O      0.20623     2.45539    -3.49007
H      0.65144     1.96470    -2.76753
O     -0.65019     1.42315    -4.00643
H     -1.16017     1.91363    -4.65656
O     -0.06691    -3.34392     0.95871
H     -0.99997    -3.10225     0.71254
O     -0.18515    -3.40367     2.38420
H     -0.61238    -4.25283     2.52831
