 28
-1061.6322726689714
O      0.85749    -1.54390    -0.14463
H      1.72445    -1.45806    -0.59791
O      1.15183    -2.52476     0.87105
H      0.26714    -2.91037     0.95458
O     -1.80222    -2.50738    -0.86333
H     -0.89623    -2.21245    -1.04471
O     -1.77822    -2.63535     0.55408
H     -1.68336    -1.71917     0.86032
O     -0.64899    -0.25195     1.96854
H      0.09719    -0.16511     1.34291
O     -0.50887     0.93157     2.76073
H      2.59820     0.44513    -1.63565
O     -2.46517     0.17298    -1.86882
H     -2.65037    -0.73522    -1.58775
O     -1.43671     0.50188    -0.92899
H     -1.82676     1.23209    -0.42063
O     -0.50437     3.54877     0.67315
H     -0.78999     4.20027     0.02671
O     -1.71870     2.82390     0.88977
H     -1.44009     2.29733     1.65280
O      3.24050    -1.28614    -1.27063
H      4.04803    -1.29219    -0.74688
O      3.34967    -0.05984    -2.00190
H     -0.16740     0.57424     3.59009
O      1.11965     1.29622    -1.16531
H      0.24675     0.87608    -1.29280
O      1.15555     1.42942     0.26430
H      0.68889     2.27408     0.38978
