 12
-454.9647619374648
O      0.70720    -0.88893    -1.41859
H      1.07069    -0.08247    -1.80101
O      1.71817    -1.85003    -1.74365
H      1.23146    -2.42429    -2.34599
O      0.48246     0.37385     1.22280
H      0.39384    -0.22609     0.46467
O      1.54590     1.22576     0.78068
H      2.25890     0.94740     1.36447
O     -2.20392     1.45836     0.67539
H     -1.30770     1.34865     1.02510
O     -2.57169     0.09063     0.45004
H     -3.21045    -0.05542     1.15607
