 36
-1364.974027089484
O     -0.17079    -2.49319    -0.55283
H     -0.75385    -3.27167    -0.70517
O      0.70045    -2.52164    -1.69100
H      0.93785    -1.57173    -1.75992
O     -3.33752    -1.12067     0.05444
H     -2.95966    -0.53425     0.74500
O     -2.58271    -0.72284    -1.09617
H     -1.76048    -1.22310    -0.98559
O      2.03783     2.13794     1.42502
H      2.90178     2.46475     1.70416
O      1.32472     3.30206     1.02351
H      1.67689     3.43635     0.12780
O      1.45171    -1.09087     1.00022
H      0.79919    -1.67518     0.55516
O      0.62330    -0.11100     1.62350
H      1.19649     0.67867     1.57594
O      1.32252     0.08269    -1.76091
H      0.70371     0.67549    -1.28516
O      2.53235     0.23828    -1.01785
H      2.32310    -0.31541    -0.23498
O     -2.20951     0.29354     3.17383
H     -2.38992     1.21144     3.38702
O     -1.98041     0.41619     1.77056
H     -1.02602     0.17152     1.71175
O     -1.77595     1.85666    -0.89637
H     -2.14045     0.95507    -0.95247
O     -0.44752     1.57367    -0.44825
H     -0.36887     2.14336     0.33050
O      3.01847     2.92427    -1.28158
H      3.00296     1.94770    -1.22702
O      4.29412     3.23040    -0.72185
H      4.74920     3.59881    -1.48618
O     -2.21222    -4.13826    -0.94718
H     -2.53007    -5.04356    -1.01070
O     -2.64325    -3.76925     0.36680
H     -3.01687    -2.88963     0.18310
