 40
-1516.6419535330715
O      0.85845     2.07415    -1.53541
H      1.48608     1.35293    -1.30269
O     -0.39445     1.41604    -1.47056
H     -0.40824     1.03374    -0.57609
O     -0.68737    -1.73713    -1.41324
H     -1.17587    -1.58367    -0.57331
O     -1.72659    -2.20546    -2.27791
H     -1.50072    -1.68831    -3.06364
O      0.94660     3.00447     2.47481
H      0.37583     2.38320     2.95571
O      1.02750     2.30146     1.23169
H      0.74139     2.95122     0.57272
O      2.50500     0.17808    -0.61552
H      2.06647    -0.61369    -0.21608
O      3.09971     0.79831     0.53375
H      2.36487     1.36681     0.85162
O     -3.25712     0.35853    -1.46543
H     -3.00501     0.57190    -2.38646
O     -4.01521    -0.84296    -1.63605
H     -3.30393    -1.48591    -1.80491
O      1.37822    -1.82482     0.65369
H      1.93495    -2.16387     1.37292
O      1.55805    -2.79790    -0.38301
H      0.80037    -2.54150    -0.93647
O     -1.86172     0.28538     0.79995
H     -2.47974     0.33025     0.03050
O     -1.74180    -1.14051     0.94691
H     -1.01577    -1.16954     1.60148
O     -2.25928     0.75279    -3.93532
H     -2.06215     1.45507    -4.56445
O     -0.98196     0.15426    -3.71246
H     -0.71924     0.58143    -2.86653
O      3.44567    -1.04159     2.43727
H      3.49377    -0.39314     1.70066
O      2.62249    -0.32430     3.34875
H      3.22252    -0.14933     4.07935
O      0.00473    -0.35702     2.76052
H      0.93797    -0.19703     2.99031
O     -0.63741     0.86619     3.13853
H     -1.25186     0.92830     2.39027
