 24
-909.9719120242709
O     -2.12478    -1.74416     1.05463
H     -2.57534    -0.97836     0.64567
O     -1.68682    -2.47597    -0.10004
H     -0.79238    -2.70091     0.21352
O     -0.87683    -0.39728    -1.69530
H     -1.15902    -1.21873    -1.24775
O      0.52012    -0.38627    -1.37967
H      0.74489     0.54944    -1.57232
O      2.76507     0.56328     0.46499
H      3.70104     0.33457     0.48100
O      2.45530     0.71353     1.85403
H      1.77354     0.02305     1.94810
O     -3.25859     0.49040     0.16461
H     -3.97821     0.92151    -0.30792
O     -2.16212     1.38566    -0.05859
H     -1.63046     0.86718    -0.69389
O      0.29745    -1.04430     1.86996
H     -0.66998    -1.13337     1.76392
O      0.73420    -1.91146     0.81096
H      0.83796    -1.27241     0.07978
O      1.25624     2.12358    -1.88261
H      1.85954     2.60727    -2.45597
O      1.52000     2.69100    -0.59484
H      2.01671     1.95954    -0.17612
