 36
-1364.9837676751954
O      0.17511     1.27022     1.96462
H     -0.32046     0.48277     2.29237
O      1.42704     0.68196     1.59222
H      1.41741     0.80863     0.61918
O     -0.22382    -1.82698    -0.93270
H      0.21541    -1.05400    -1.33260
O     -1.57661    -1.37273    -0.84705
H     -1.74766    -1.43233     0.11522
O     -2.14077    -1.18024     1.82858
H     -2.53513    -0.28249     1.85894
O     -1.01554    -0.99691     2.69835
H     -0.41668    -1.70799     2.38753
O      2.85175    -2.11414    -1.06499
H      2.72765    -2.12953    -0.09052
O      3.55752    -0.88501    -1.24639
H      4.40667    -1.18078    -1.58996
O     -2.90656     1.35268     1.58176
H     -2.50228     1.71867     0.76554
O     -4.17761     0.93599     1.08975
H     -4.72277     1.12888     1.85664
O     -0.38708     2.80248    -0.12326
H     -0.24077     2.36442     0.74267
O     -1.54963     2.11304    -0.58373
H     -1.20554     1.56178    -1.30887
O      1.53100     0.80083    -1.07987
H      2.33143     0.31196    -1.36602
O      1.73050     2.11404    -1.59412
H      1.03460     2.56619    -1.07518
O      0.09181    -0.33102    -3.29431
H     -0.73500    -0.76102    -3.52900
O     -0.35665     1.01109    -3.07433
H      0.49921     1.45305    -2.99082
O      2.04087    -1.94590     1.47938
H      1.82752    -1.00688     1.65997
O      0.74523    -2.54208     1.40538
H      0.46854    -2.36494     0.47530
