 20
-758.310013017123
O     -0.62180    -1.69990     0.20700
H     -1.23443    -0.98933     0.48991
O     -0.17591    -2.21385     1.46323
H      0.50123    -1.55968     1.70035
O      1.43362     0.00061     1.91837
H      1.38282     0.34892     1.00016
O      0.55607     0.89934     2.59058
H      1.17093     1.49826     3.02584
O      1.44516    -0.63876    -1.02836
H      0.70583    -1.13645    -0.60143
O      1.14659     0.69599    -0.60953
H      0.39420     0.90759    -1.19419
O     -0.48022     0.91456    -2.72388
H     -0.20276     1.57624    -3.36627
O     -0.22105    -0.31127    -3.41905
H      0.54054    -0.63407    -2.91367
O     -2.23242     0.32184     0.89529
H     -3.04404     0.65523     0.50222
O     -1.39707     1.47987     0.85745
H     -0.74171     1.22917     1.53357
