 32
-1213.3081278842817
O      1.50041     1.06370    -2.12984
H      0.64920     0.59258    -2.00372
O      2.34209     0.31476    -1.23404
H      2.94561     1.01102    -0.93793
O      1.11181    -1.29113     1.50813
H      1.54487    -0.40595     1.53989
O      1.20933    -1.69005     0.13523
H      1.62692    -0.93095    -0.32692
O     -0.69225    -0.27117    -1.45621
H     -0.90278    -1.19071    -1.70431
O     -1.89138     0.43403    -1.78266
H     -2.53135    -0.04506    -1.21248
O      2.09262     3.77052    -1.06223
H      1.83638     3.12314    -1.73765
O      3.04060     2.96880    -0.34395
H      3.79083     3.56313    -0.25907
O      1.96621     1.16858     1.64101
H      2.03883     1.96904     1.09642
O      1.06326     1.58675     2.66947
H      0.20364     1.31471     2.28199
O     -1.15400    -2.92080    -1.45879
H     -1.67374    -3.70625    -1.64911
O     -1.11978    -2.93442    -0.02928
H     -0.21946    -2.56583     0.12051
O     -3.23329    -1.32453    -0.29277
H     -2.57414    -2.00183    -0.04353
O     -4.01698    -1.18745     0.89001
H     -3.37936    -0.75063     1.47200
O     -1.11879     0.72201     1.39980
H     -0.90741     0.48635     0.48192
O     -1.41278    -0.54529     1.99845
H     -0.53035    -0.97083     1.96741
