 32
-1213.303076839994
O      2.67857    -0.47924     2.08742
H      2.12706    -1.19531     1.73528
O      2.56219    -0.67552     3.49420
H      3.44455    -0.98970     3.71208
O     -2.19959    -1.20438    -1.58193
H     -2.48548    -0.37293    -1.12028
O     -1.99751    -2.06358    -0.46047
H     -2.80112    -2.59018    -0.45302
O      0.77802     1.00206     0.12847
H      0.54571     0.08615     0.41945
O      1.17044     1.64296     1.35007
H      1.82160     0.99625     1.69082
O     -1.28245     0.06548     2.85482
H     -1.62926     0.36236     3.70080
O     -1.36905     1.27964     2.10957
H     -0.42734     1.52213     1.96722
O      0.16836     1.56196    -2.71851
H     -0.01606     2.13164    -3.47100
O      1.38071     2.12993    -2.21561
H      1.30961     1.80861    -1.29456
O      0.52716    -1.71703    -2.29458
H     -0.35382    -1.34539    -2.45240
O      1.41923    -0.84017    -2.98638
H      1.04270     0.04178    -2.81852
O      0.23019    -1.48788     0.86366
H     -0.61325    -1.79102     0.46872
O      1.19056    -2.31505     0.20483
H      1.04619    -2.03667    -0.72752
O     -2.68432     0.96785    -0.20591
H     -2.24573     1.09009     0.66487
O     -2.20980     2.07959    -0.95012
H     -1.41117     1.71144    -1.35172
