 28
-1061.6434622060833
O      0.47807    -1.69470    -2.06848
H      1.36975    -1.33630    -2.17537
O      0.08392    -0.98254    -0.89857
H     -0.50044    -1.63826    -0.45666
O     -2.37318    -2.31392     1.22227
H     -2.48726    -1.36732     1.00162
O     -1.61281    -2.74918     0.09742
H     -2.26070    -3.21270    -0.44536
O      0.06895    -1.04935     2.15470
H     -0.65774    -1.64251     2.39416
O     -0.31460     0.15642     2.83931
H      1.46825    -0.29311     0.76858
O      0.31056     2.08480    -1.00744
H      0.97397     1.78228    -1.65753
O     -0.87307     1.41144    -1.45269
H     -0.64065     0.47441    -1.28444
O     -2.63526     1.59764     0.62113
H     -2.14361     1.83552    -0.18084
O     -2.09176     0.29754     0.85404
H     -1.49303     0.45138     1.61387
O      1.44100     1.50399     1.31474
H      0.91242     1.81639     0.54710
O      2.15660     0.39360     0.75803
H      0.42403     0.73652     2.56639
O      2.87233     0.05978    -1.83111
H      2.69151     0.27676    -0.89407
O      2.36107     1.20925    -2.49920
H      3.15924     1.70174    -2.71114
