 36
-1364.9743613243672
O      2.63251     2.25652    -1.11819
H      1.70061     2.57793    -1.05606
O      2.67723     1.66744    -2.41451
H      3.18383     2.32668    -2.89518
O     -2.65382    -2.22013    -1.60464
H     -2.76371    -1.25234    -1.47221
O     -3.78787    -2.72641    -0.88190
H     -3.34017    -2.99915    -0.06529
O      1.14362     1.74718     2.88689
H      0.88367     2.12700     2.02757
O      1.13362     0.35800     2.54282
H      1.91460     0.29023     1.95239
O      0.59409    -0.49950    -0.18042
H      0.17753    -1.35749     0.09466
O      1.00654    -0.80178    -1.51868
H      1.96059    -0.81516    -1.34864
O     -2.59243     0.37000    -0.99571
H     -2.29483     0.53270    -0.07784
O     -1.50654     0.80865    -1.81692
H     -0.87649     0.07502    -1.74157
O     -1.33252    -0.52704     2.09310
H     -0.39518    -0.21865     2.17338
O     -2.03535     0.62528     1.63613
H     -1.75925     1.31280     2.25276
O      3.16387     0.37923     0.77094
H      3.03282     1.06490     0.08305
O      3.27679    -0.80268    -0.02531
H      4.19372    -1.05221     0.12836
O      0.13100     2.01400     0.44364
H      0.30608     1.08940     0.14797
O      0.02380     2.72830    -0.77980
H     -0.63110     2.18418    -1.26706
O     -1.84411    -2.88842     0.99432
H     -1.80583    -2.01808     1.43011
O     -0.72519    -2.75544     0.10552
H     -1.22970    -2.70444    -0.74015
