 40
-1516.6563924065401
O      3.43507     0.81240     0.38358
H      3.14372     0.59743    -0.52762
O      3.08538    -0.37206     1.10191
H      2.17023    -0.18528     1.39253
O      0.54494    -0.02513     1.86444
H     -0.34071    -0.45218     1.91438
O      0.41597     1.01742     2.83567
H      1.01365     1.68436     2.43620
O      1.04440     2.97320     0.22591
H      0.13578     2.97168     0.59209
O      1.85097     2.71451     1.37843
H      2.55178     2.14072     0.99620
O     -1.53245     2.48874     0.81283
H     -1.74631     1.76962     0.18561
O     -1.97431     1.95362     2.05722
H     -1.12366     1.72426     2.48188
O     -1.87899    -1.20310     1.93213
H     -1.90815    -1.93277     1.27895
O     -3.05570    -0.45910     1.60943
H     -2.78408     0.44146     1.88364
O      0.97125     0.74906    -1.24730
H      1.07272     1.62131    -0.80821
O      2.20260     0.60950    -1.96234
H      1.94865    -0.14940    -2.50758
O     -1.92482     0.59619    -1.03774
H     -1.41618     0.32972    -1.83246
O     -2.97443    -0.37634    -1.05398
H     -3.17729    -0.41588    -0.09487
O      2.45034    -2.24777    -0.70162
H      2.94498    -1.71414    -0.04461
O      1.13452    -2.11002    -0.17917
H      0.91823    -1.18508    -0.40432
O     -1.37228    -2.96850    -0.03358
H     -0.39622    -2.91008     0.00687
O     -1.58127    -2.64939    -1.41202
H     -2.17990    -1.87798    -1.35210
O     -0.74418    -0.37017    -3.26053
H     -1.04832    -0.46986    -4.17000
O      0.32854    -1.30506    -3.16292
H     -0.09155    -2.03470    -2.67156
