 40
-1516.6447234380603
O     -0.28503     1.48866     1.71077
H     -0.70305     2.10501     1.06773
O      0.92506     1.18207     1.00370
H      0.82125     0.20841     0.90653
O      0.05012    -3.41928    -1.77570
H      0.60507    -3.19241    -1.00783
O     -1.22396    -3.62367    -1.15190
H     -1.67099    -2.79010    -1.38082
O     -1.21422     3.06732    -0.26327
H     -0.46412     3.45072    -0.75946
O     -1.70096     2.17642    -1.28441
H     -1.84928     1.34653    -0.78109
O     -1.79065    -2.43972     1.45925
H     -1.62334    -3.11278     0.78205
O     -0.88644    -2.84357     2.49234
H     -1.13319    -2.22228     3.19986
O     -1.96123    -0.19299    -0.10437
H     -1.88031    -0.85048     0.61592
O     -1.94718    -1.04855    -1.25404
H     -1.13101    -0.75813    -1.70554
O      1.38566    -0.13924    -1.69284
H      1.36586     0.79319    -1.98556
O      0.35905    -0.68067    -2.53510
H      0.59512    -1.62095    -2.56544
O      0.48775     2.22402    -2.73363
H     -0.44357     2.07469    -2.48175
O      0.72991     3.44658    -2.01655
H      1.61841     3.26105    -1.66120
O      0.02247    -0.35766     3.65684
H     -0.20364     0.36600     3.03856
O     -1.26342    -0.72861     4.15724
H     -1.12206    -0.65496     5.10533
O      1.61403    -2.14858     0.03156
H      1.79843    -1.40087    -0.56729
O      0.74773    -1.43855     0.92226
H      0.39454    -2.12225     1.53035
O      2.57394     3.15391     0.29485
H      1.97246     2.45560     0.61397
O      2.96358     2.54576    -0.93831
H      3.90858     2.71793    -0.96261
