 32
-1213.3077865935327
O      1.86603    -1.41863     0.86024
H      1.74700    -0.45671     0.86639
O      0.66838    -1.88213     1.48602
H      0.79063    -1.62738     2.42201
O      1.20752    -0.58468    -2.93192
H      0.96249    -1.48243    -2.64804
O      0.76567     0.12967    -1.77570
H      0.07571     0.72474    -2.11916
O     -0.44307     2.74025    -0.45108
H      0.50304     2.89717    -0.58260
O     -0.85312     2.49064    -1.80228
H     -1.78480     2.27902    -1.66068
O     -2.66200    -0.19811    -2.14446
H     -3.50384    -0.65579    -2.21725
O     -2.93329     0.73938    -1.10197
H     -2.44245     0.34523    -0.34224
O      2.36007     1.47510     0.75090
H      3.30747     1.45455     0.91459
O      2.31449     1.92604    -0.60663
H      1.94052     1.13511    -1.04841
O      0.27237    -2.71367    -1.52169
H      0.79726    -2.52899    -0.72705
O     -1.04359    -2.39708    -1.06237
H     -1.28542    -1.66671    -1.64741
O      0.65874    -0.99128     4.01852
H      0.05367    -1.32584     4.68732
O      0.29082     0.38814     3.94332
H     -0.07954     0.43633     3.04001
O     -1.52035    -0.21782     0.91944
H     -0.95425    -0.96418     0.64977
O     -0.56506     0.73294     1.40190
H     -0.56356     1.41664     0.70061
