 20
-758.3062166674358
O      0.94095    -2.24605    -0.01644
H      1.54989    -1.54340    -0.30068
O     -0.15069    -1.45093     0.45482
H     -0.68254    -1.34542    -0.36129
O      0.20753     0.92618     2.83338
H      0.36397     0.67752     3.74968
O      1.16028     0.10464     2.14798
H      0.56929    -0.52425     1.67209
O      1.43510     0.92744    -1.30181
H      0.74681     1.19791    -0.67126
O      2.31170     0.10490    -0.54128
H      2.20643     0.43152     0.36497
O     -1.47117    -1.25016    -1.86551
H     -1.48645    -2.03513    -2.42563
O     -0.91419    -0.25934    -2.72622
H     -0.03975    -0.12955    -2.32635
O     -1.28620     1.30028    -0.15859
H     -2.15717     1.25784    -0.57101
O     -1.46042     2.28264     0.87000
H     -1.08178     1.79657     1.61242
