 32
-1213.3128700507032
O      2.48865    -1.48330     0.81471
H      2.71213    -0.91504     0.06483
O      2.41608    -0.52558     1.88516
H      1.61811    -0.84314     2.34230
O     -2.60415    -0.65648     0.40772
H     -2.10816    -0.33911     1.19268
O     -2.47201     0.44867    -0.47856
H     -2.10606     0.03787    -1.28499
O     -1.02886    -0.27511    -2.62171
H     -0.45386     0.47650    -2.39880
O     -0.08154    -1.34342    -2.64127
H     -0.42209    -1.91653    -1.92499
O     -1.15381     2.81244    -0.55822
H     -1.67440     2.00133    -0.37543
O     -0.66873     2.52756    -1.87018
H     -1.28075     3.02497    -2.42190
O      1.03296     1.92650     1.73383
H      1.83792     1.39205     1.82057
O      1.41163     2.88709     0.74876
H      0.54054     3.22493     0.50349
O     -0.17329    -2.72189     0.59678
H      0.64952    -2.34531     0.24076
O     -1.06580    -2.65049    -0.50811
H     -1.74272    -2.03053    -0.16424
O      1.01846     0.25240    -0.71938
H      1.31185     1.11506    -0.37827
O      2.10186    -0.17837    -1.55953
H      1.59453    -0.79107    -2.11736
O     -0.89711     0.08010     2.29816
H     -0.21784     0.73454     2.05246
O     -0.11898    -1.04999     2.68816
H     -0.35685    -1.70639     2.00365
