 32
-1213.3046834458914
O      0.77696    -0.70453     1.64784
H      1.43907    -0.90165     0.95895
O      1.51798     0.08176     2.58520
H      1.13193     0.95896     2.43135
O      2.43782    -1.85969    -1.47870
H      3.18253    -2.43598    -1.28905
O      2.57673    -0.88316    -0.44930
H      2.19777    -0.08960    -0.89435
O     -1.01313     0.28694    -2.85849
H     -0.77178    -0.35992    -2.15694
O     -2.07243     1.01247    -2.24216
H     -2.86167     0.67921    -2.68150
O     -1.93157     0.52248     1.01586
H     -1.08074     0.05426     1.03085
O     -1.57071     1.69154     0.30155
H     -1.70186     1.42361    -0.63700
O      1.13836     1.18780    -1.12790
H      1.11815     1.88895    -0.43821
O      1.26957     1.93255    -2.33852
H      0.48795     1.59706    -2.79869
O     -1.16670    -2.11193     2.91965
H     -0.40770    -1.66084     2.49987
O     -1.98046    -2.43281     1.78166
H     -2.61449    -1.70424     1.76909
O     -0.99173    -2.69502    -1.03543
H     -1.20523    -2.68362    -0.09152
O     -0.17557    -1.52775    -1.09976
H      0.73233    -1.87841    -1.22834
O      1.16675     3.01969     0.78129
H      0.94375     3.95424     0.72288
O      0.35997     2.55606     1.86519
H     -0.44592     2.27467     1.36873
