 36
-1364.9748361253235
O      3.08790     0.35471    -0.69162
H      3.14076     1.15061    -0.13511
O      2.96686    -0.63842     0.34035
H      2.69291    -1.43318    -0.16193
O     -1.59331    -2.29209    -0.24142
H     -1.15390    -3.15227    -0.24115
O     -2.92890    -2.61121    -0.65348
H     -3.02586    -2.00166    -1.40044
O      0.89602     0.77880    -2.16694
H      1.76475     0.64338    -1.72636
O      0.08585    -0.17457    -1.48473
H      0.19077     0.09365    -0.55034
O      1.63093    -2.65202    -0.91427
H      0.91666    -2.08760    -1.25029
O      1.00832    -3.32272     0.17652
H      0.84912    -2.57419     0.77757
O     -3.03891     0.77152    -1.22105
H     -2.44297     1.54317    -1.28507
O     -2.50704    -0.12681    -2.20038
H     -1.56712    -0.20191    -1.94391
O     -2.50861    -0.07409     1.33955
H     -2.95901     0.11366     0.49739
O     -2.18958     1.25477     1.76634
H     -2.05841     1.12245     2.71212
O      2.55952     2.45900     0.93546
H      1.58983     2.46105     0.86809
O      2.75282     2.50166     2.34247
H      3.24507     3.32191     2.43274
O     -0.24514     2.07768     0.12007
H     -0.99871     1.80871     0.68227
O     -0.89664     2.48537    -1.09408
H     -0.30900     2.02661    -1.71906
O      0.27745    -1.05342     1.23556
H     -0.69795    -1.04922     1.24510
O      0.65980    -0.03091     2.15994
H      1.61896    -0.06551     2.02519
