 24
-909.980542009387
O      0.52386    -0.07050     2.23963
H      0.48751    -0.80781     1.60051
O     -0.87595     0.08686     2.52596
H     -1.02445     0.92931     2.06173
O      1.26338     0.22578    -1.98543
H      0.98376     0.82029    -1.26398
O      0.27319    -0.79877    -1.95640
H     -0.51634    -0.33183    -2.29299
O      3.02208     0.33983     0.74389
H      3.37710     0.06944     1.59579
O      2.69518    -0.93472     0.18679
H      2.76021    -0.73603    -0.75758
O     -2.49261     0.53155    -0.99513
H     -2.24265    -0.32609    -0.58197
O     -2.08491     0.36566    -2.34421
H     -2.90355     0.11375    -2.78003
O     -0.31304    -1.79795     0.43474
H     -0.09067    -1.46069    -0.45676
O     -1.71461    -1.50579     0.54093
H     -1.70210    -1.07291     1.41820
O     -0.81483     1.95015     0.62903
H     -1.37235     1.58126    -0.07676
O      0.49906     1.81268     0.08157
H      0.97263     1.37396     0.81151
