 32
-1213.3086335546498
O     -2.16497    -0.81645     0.91705
H     -2.14192    -1.54093     0.25339
O     -3.06579     0.09928     0.28843
H     -3.71960     0.18937     0.98742
O     -1.13842    -0.34340    -2.98128
H     -1.00955     0.58415    -2.71008
O      0.24107    -0.77179    -2.97228
H      0.13608    -1.60412    -2.47165
O     -0.63798    -2.77473    -1.45033
H     -0.24970    -2.66909    -0.55635
O     -2.01565    -2.43501    -1.22946
H     -2.12728    -1.74695    -1.90566
O     -0.07498     1.87432    -1.93517
H     -0.28219     1.78554    -0.98809
O      1.28704     1.41196    -1.93150
H      1.16302     0.52391    -2.32895
O      2.24741     3.86170     0.26060
H      3.17292     4.08961     0.38460
O      2.30623     2.44290     0.35363
H      2.04143     2.17260    -0.55159
O      0.60764    -2.18118     0.81867
H      0.79114    -1.81670     1.71415
O      1.46207    -1.37561     0.00198
H      0.95877    -0.55033    -0.03317
O      1.04264    -0.72427     3.03841
H      0.72748     0.15824     2.74803
O      0.11116    -1.05059     4.06576
H      0.70680    -1.17605     4.80994
O     -0.30883     1.06290     0.55909
H     -0.99003     0.41051     0.84507
O      0.23675     1.54044     1.79855
H      1.03509     1.96862     1.42908
