 24
-909.9719349925833
O      0.95742     1.17871     1.31403
H      0.39027     1.81166     0.83668
O      0.10727     0.74615     2.38078
H     -0.29241    -0.04347     1.98870
O      1.58407    -0.98009    -1.97782
H      2.36333    -0.87451    -1.41698
O      0.74972     0.05916    -1.46231
H      0.16043    -0.46977    -0.88220
O      2.46369    -2.10355     0.96227
H      3.05194    -2.39504     1.66807
O      3.02640    -0.85594     0.57263
H      2.35734    -0.23669     0.91028
O     -2.91227     0.16458    -1.04195
H     -2.42366     0.99723    -1.07898
O     -3.25599     0.13563     0.34627
H     -4.17046    -0.15581     0.29993
O     -0.83014    -1.20783     0.23946
H     -1.77523    -1.22586     0.01235
O     -0.48704    -2.58660     0.43254
H      0.47124    -2.50659     0.32673
O     -0.89017     2.21253    -1.43835
H     -0.17757     1.54597    -1.53261
O     -0.52556     2.85729    -0.21998
H     -0.16419     3.69223    -0.53218
