 32
-1213.310738958796
O     -1.97051    -1.56019     0.47552
H     -1.04667    -1.74684     0.75356
O     -1.84969    -1.38124    -0.93795
H     -2.02287    -0.42036    -1.03553
O      3.15840    -2.19735     0.83817
H      4.01343    -1.83042     1.07840
O      2.81986    -1.37936    -0.27000
H      2.36498    -2.01787    -0.84594
O     -2.18059     1.28632    -1.16839
H     -2.32473     1.46229    -0.21807
O     -1.27875     2.32883    -1.54860
H     -0.44932     1.83604    -1.70029
O      1.04031     0.92556    -1.75146
H      0.81005     0.01416    -2.01169
O      1.10724     0.81048    -0.32265
H      1.75761     0.09386    -0.19758
O      0.75933     3.33400     0.72409
H      0.88543     2.43948     0.36327
O     -0.66231     3.41329     0.81764
H     -0.93320     3.31735    -0.11686
O      0.36131    -1.63541    -2.37939
H     -0.45830    -1.72777    -1.83771
O      1.15240    -2.71380    -1.90811
H      1.20622    -3.27133    -2.68874
O      0.07560    -1.32959     2.67023
H     -0.24768    -0.42806     2.49713
O      0.53233    -1.69148     1.36856
H      1.49373    -1.79547     1.48687
O     -1.05018     1.11314     2.06257
H     -0.87025     2.04258     1.77069
O     -2.35292     0.89784     1.49963
H     -2.31460    -0.06004     1.32075
