 36
-1364.9828659576215
O      3.00870     2.90235     0.04752
H      3.89872     3.00819     0.39518
O      2.24686     2.59027     1.21588
H      2.04939     1.64229     1.07595
O      0.52179     2.45547    -1.90568
H     -0.04270     1.98128    -2.53648
O      1.65424     1.57501    -1.82708
H      2.24564     2.09967    -1.24596
O     -1.42042    -2.02493     3.21592
H     -1.75267    -1.97325     4.11659
O     -0.02036    -1.82747     3.39137
H      0.09435    -0.95477     2.96283
O     -1.89059     1.07986    -2.74469
H     -2.13240     1.39180    -1.85277
O     -2.04631    -0.33496    -2.57331
H     -1.11020    -0.60928    -2.45182
O     -0.87155     2.16054     0.36867
H     -0.38078     2.39234    -0.44739
O     -2.10792     1.67848    -0.15630
H     -2.20185     0.83715     0.33429
O     -2.21841    -0.70610     1.01224
H     -1.96050    -1.19797     1.81737
O     -1.99303    -1.69040     0.00645
H     -2.27251    -1.23260    -0.80537
O      1.20675    -1.72545    -2.46628
H      1.21366    -2.45423    -1.82952
O      0.40190    -0.80032    -1.73986
H      0.97948    -0.00889    -1.64957
O      0.33276     0.39161     1.93951
H     -0.16748     1.08138     1.44438
O      1.35251     0.09968     0.98400
H      1.22952    -0.86900     0.84540
O      1.13331    -2.56027     0.90300
H      0.75446    -2.88487     1.73664
O      0.29472    -3.13064    -0.10385
H     -0.49192    -2.55574    -0.07673
