 36
-1364.9802624167135
O      2.64020     0.92139     0.05727
H      2.75904     1.16172     0.99455
O      1.65113    -0.09974     0.23636
H      1.82708    -0.67824    -0.54004
O     -3.36044    -0.67257     0.50089
H     -2.78224    -1.45172     0.41268
O     -2.74864     0.01937     1.58531
H     -2.02409     0.51246     1.15120
O      2.52367     1.35609     2.71589
H      2.77929     2.02112     3.36277
O      1.11104     1.27568     2.90389
H      0.78249     1.82502     2.16484
O      2.20245    -1.47093    -1.96383
H      3.04268    -1.68733    -2.38367
O      1.37297    -1.07815    -3.05999
H      1.44060    -0.10219    -2.98993
O      1.61508     1.51027    -2.37206
H      2.02805     1.42755    -1.49218
O      0.35678     2.09375    -2.04109
H     -0.27802     1.35857    -2.17769
O     -1.32516    -1.67260     3.10983
H     -1.98687    -1.09192     2.67723
O     -0.18558    -1.40437     2.29671
H      0.17553    -0.57970     2.66563
O     -2.77045    -0.10071    -2.38774
H     -3.10470     0.08498    -1.50012
O     -1.37073     0.07521    -2.20576
H     -1.10489    -0.76614    -1.77546
O      0.23390     2.37163     0.58807
H      0.34486     2.49181    -0.38164
O     -0.57573     1.20481     0.56461
H      0.12128     0.51897     0.47211
O     -1.35859    -2.51112     0.20344
H     -0.83883    -2.25656     0.99873
O     -0.50134    -2.04676    -0.83473
H     -0.16931    -2.85912    -1.23343
