 32
-1213.3098767834688
O      0.45429     1.59727     0.21892
H      0.73909     1.46236    -0.69559
O      1.71453     1.55916     0.91080
H      1.46160     1.05193     1.70728
O     -0.43063    -1.83341     0.21157
H      0.38280    -1.76066     0.75189
O      0.00159    -1.38198    -1.08164
H     -0.82584    -1.03018    -1.47998
O     -1.51767     1.18099    -2.07896
H     -0.70405     1.00028    -2.57993
O     -2.13913    -0.11557    -2.13237
H     -2.87274     0.05524    -1.51109
O     -1.58838     0.15329     2.47474
H     -1.82881     0.96066     1.97799
O     -2.32991    -0.82306     1.74168
H     -1.63543    -1.19226     1.15674
O      0.85176     0.56912    -3.19073
H      1.34701     0.88200    -3.95447
O      1.83899     0.59993    -2.16372
H      1.77876    -0.31292    -1.82523
O      3.51047    -0.71773     0.43567
H      3.06756     0.13491     0.29193
O      3.01017    -1.49265    -0.64707
H      3.80242    -1.63183    -1.17459
O      1.05671    -0.24850     2.79684
H      0.07752    -0.27584     2.76395
O      1.40338    -1.49085     2.17659
H      2.32625    -1.33090     1.93336
O     -3.51003     0.76874     0.01277
H     -3.38534     0.04380     0.65826
O     -2.59370     1.71846     0.58789
H     -1.86296     1.69201    -0.04955
