 24
-909.9763281141533
O     -1.85324     0.81591     0.04062
H     -1.69943    -0.05771    -0.37270
O     -1.89603     0.50712     1.44403
H     -1.27477     1.19235     1.76409
O     -1.44820    -1.55963    -1.30274
H     -0.68906    -2.08393    -0.98211
O     -0.85586    -0.95937    -2.46315
H     -1.33773    -1.40472    -3.16743
O      1.68868     1.80058    -1.20623
H      1.10644     2.52137    -0.92677
O      1.72256     1.05531     0.02929
H      1.84327     0.14726    -0.31050
O      1.06153    -2.32024    -0.58044
H      1.07476    -1.98407     0.33697
O      1.81864    -1.31878    -1.27510
H      1.18448    -1.05572    -1.95892
O     -0.63768    -1.84055     1.76157
H     -1.17237    -1.01739     1.71919
O      0.67902    -1.29406     1.84211
H      0.95287    -1.56608     2.72433
O     -0.02208     2.41084     1.50708
H      0.73205     1.86715     1.20491
O     -0.36393     3.01964     0.24922
H     -1.01516     2.36633    -0.06050
