 36
-1364.9742562581187
O      2.10033     3.96901    -0.41847
H      2.61465     4.54299    -0.99436
O      2.93379     2.82072    -0.27814
H      2.55190     2.21015    -0.94679
O     -2.13673     0.75131     0.34828
H     -2.02450     0.45960     1.27660
O     -3.47136     0.33791     0.05428
H     -3.32476    -0.58011    -0.21511
O     -2.00887    -3.49759    -0.24645
H     -1.22155    -3.81837     0.21353
O     -1.88876    -2.10460    -0.00543
H     -1.28965    -1.80444    -0.73093
O      1.36540    -2.74013     0.89516
H      0.93316    -2.20528     1.58352
O      0.72082    -3.99844     1.07248
H      1.45609    -4.54949     1.35752
O      1.96728     0.85866    -1.85884
H      1.93842    -0.08417    -1.59567
O      0.64029     1.00535    -2.39474
H      0.25118     1.61562    -1.73331
O     -0.87491    -1.67551     2.36868
H     -1.36045    -1.80941     1.52546
O     -1.21577    -0.31309     2.67016
H     -0.34484     0.10863     2.65094
O     -0.15672     2.63549    -0.49432
H      0.54108     3.29882    -0.32341
O     -1.33652     3.43621    -0.61168
H     -1.95934     2.82562    -0.19451
O      1.21681    -1.62991    -1.54880
H      1.15173    -2.06555    -0.67814
O     -0.15950    -1.45835    -1.92345
H     -0.10337    -0.55520    -2.30279
O      1.29981     1.36963     1.77137
H      2.01464     1.77824     1.25949
O      0.86328     0.33542     0.89469
H      0.08831     0.75204     0.46123
