 32
-1213.3030646024772
O      2.75548    -1.32313    -0.63857
H      2.91594    -1.02996    -1.54194
O      2.56102    -0.07841     0.04729
H      1.67013    -0.20358     0.43242
O     -2.61169    -2.91725    -0.62332
H     -3.32195    -3.30105    -0.10101
O     -2.39374    -1.68346     0.05801
H     -2.11958    -1.10710    -0.68799
O     -1.32355    -0.12855    -1.85543
H     -1.29344     0.84110    -1.81747
O      0.07446    -0.44293    -1.98195
H      0.06791    -1.39586    -1.74406
O     -1.64469     1.64998     1.17161
H     -1.10221     0.83415     1.15165
O     -2.85010     1.23406     0.52754
H     -3.41098     0.97431     1.26539
O      1.30374     2.42186     1.51355
H      1.24405     2.46322     0.53236
O      2.68913     2.67234     1.71953
H      2.65640     3.51164     2.18647
O      0.75542    -2.92843     0.11439
H      1.54442    -2.42706    -0.18060
O      0.01684    -2.96342    -1.10828
H     -0.89201    -3.13937    -0.79841
O     -0.53084     2.47087    -1.37131
H     -0.88270     2.58700    -0.47669
O      0.86836     2.27641    -1.12120
H      0.99817     1.37082    -1.44512
O      0.57202    -0.00247     2.50401
H      0.91471     0.89218     2.30600
O      0.15117    -0.36187     1.18918
H      0.02674    -1.32899     1.22619
