 12
-454.97200283579025
O      0.03894    -0.81995    -0.75426
H     -0.84701    -0.94079    -0.37015
O      0.03966     0.61284    -0.88930
H      0.76901     0.82595    -0.28479
O      2.51848    -0.72010     0.82058
H      1.81673    -1.08796     0.26173
O      2.37919     0.67707     0.52427
H      3.13778     0.83695    -0.04736
O     -2.83980     0.66946    -0.12551
H     -2.00130     0.97633    -0.50329
O     -2.45331    -0.63825     0.32292
H     -2.43217    -0.52164     1.27899
