 16
-606.6361751178869
O     -0.99752     0.72075     0.07012
H     -1.13056     1.18093    -0.77699
O      0.32729     1.19484     0.37220
H      0.65776     0.46322     0.92605
O      1.23730    -1.00908     1.68254
H      0.82195    -1.70197     1.12873
O      0.60196    -1.24194     2.93589
H      1.36807    -1.38783     3.49783
O      0.50646     2.59347    -2.15378
H      0.74578     2.33871    -1.25030
O     -0.86794     2.17645    -2.17274
H     -1.32926     3.01992    -2.23171
O     -1.10749    -1.92136    -0.59419
H     -0.96092    -1.00259    -0.29429
O      0.08894    -2.57623    -0.15314
H      0.50543    -2.80613    -0.98893
