 36
-1364.983626043393
O      2.40187    -0.52652     1.80976
H      1.44675    -0.65534     1.61991
O      3.03538    -1.23864     0.74969
H      3.13896    -0.52910     0.08489
O      1.13688    -2.11673    -1.56887
H      0.22084    -2.28590    -1.88455
O      1.15478    -2.82001    -0.32004
H      1.92600    -2.39301     0.10463
O      1.67192     2.46651     1.95059
H      1.80541     2.89500     2.80131
O      2.97566     2.03633     1.58907
H      2.90454     1.07974     1.80716
O     -0.91833    -1.95886     1.11940
H     -0.30573    -2.45645     0.53872
O     -0.19025    -0.74862     1.32479
H     -0.60057    -0.12477     0.69159
O     -2.28943    -3.09866    -1.79328
H     -2.97464    -2.60462    -1.32377
O     -1.44301    -2.03942    -2.25386
H     -1.76148    -1.26374    -1.75242
O     -3.54241     2.08924     0.18206
H     -4.03223     2.75859    -0.30566
O     -2.67566     2.88421     1.00905
H     -1.79899     2.62019     0.65171
O     -0.30208     1.99247     0.24097
H      0.40030     2.15707     0.89818
O      0.15116     2.78521    -0.85707
H      0.54613     2.07164    -1.38441
O      2.81025     0.73404    -1.01890
H      2.73651     1.50380    -0.43788
O      1.44633     0.52221    -1.39172
H      1.40197    -0.45821    -1.46057
O     -3.13927    -1.09834    -0.02933
H     -2.46019    -1.52074     0.53669
O     -2.28213    -0.10838    -0.62249
H     -2.74618     0.71878    -0.35079
