 24
-909.9752595547573
O     -2.30378    -1.88484    -0.05592
H     -1.49446    -1.76653    -0.58859
O     -2.45492    -0.59162     0.54669
H     -2.08921    -0.73280     1.43623
O      1.12974    -1.64149    -0.51637
H      0.70620    -1.80591     0.34975
O      0.01661    -1.36697    -1.36281
H     -0.09087    -0.40591    -1.26341
O      3.42333     0.14226    -0.64933
H      2.77029    -0.52617    -0.89825
O      2.77216     1.30370    -1.16734
H      3.51610     1.86379    -1.40562
O     -2.59247     2.01886    -1.59017
H     -2.80755     1.62495    -2.44030
O     -1.51150     1.18499    -1.17670
H     -1.95670     0.61631    -0.50317
O     -0.32670    -0.67180     2.40321
H      0.15296    -0.04464     1.82005
O      0.27063    -1.91042     2.01572
H      0.85592    -2.09724     2.75707
O      0.92857     1.00071     0.74199
H      1.71371     1.23121     0.19851
O      0.27048     2.25898     0.93348
H     -0.32610     2.25548     0.17192
