 28
-1061.6442058649181
O      0.29555    -0.91636    -2.30266
H     -0.55999    -1.26182    -1.97467
O      1.21798    -1.87316    -1.76894
H      2.05931    -1.40391    -1.89723
O      0.44003    -0.60432     1.14297
H      0.27978    -0.16525     1.99724
O      1.27724    -1.71095     1.48228
H      2.04431    -1.49552     0.93633
O     -0.58434     1.06872     3.08052
H     -0.22822     1.53594     3.83997
O     -0.91005     2.15350     2.21558
H      0.70010     0.45537    -1.48317
O     -1.97698    -1.35436     0.31159
H     -1.02375    -1.17249     0.44951
O     -2.11552    -1.33411    -1.11661
H     -2.52072    -0.45114    -1.21958
O     -2.94163     1.05614     0.78849
H     -2.77250     0.09487     0.87167
O     -2.66267     1.22487    -0.60518
H     -1.73808     1.53080    -0.59298
O     -0.07262     1.92123    -0.54725
H      0.08410     1.99656     0.40486
O      1.08843     1.19961    -0.96125
H     -1.77478     1.85878     1.87214
O      3.60366    -0.60285    -1.58151
H      4.40155    -1.12316    -1.44931
O      3.24710    -0.29498    -0.23509
H      2.56616     0.38298    -0.39508
