 36
-1364.9748928662425
O      0.20218    -0.39441    -2.31466
H     -0.77033    -0.39678    -2.17796
O      0.61786    -0.00860    -1.00296
H      0.52090     0.98148    -1.05389
O      2.63150    -2.72729     0.89352
H      3.01779    -2.35733     0.08702
O      1.47459    -1.90324     1.01053
H      0.73373    -2.48270     0.76325
O     -2.98317     1.67137    -0.00223
H     -2.37602     1.53981     0.75539
O     -2.49975     2.89342    -0.55766
H     -3.27738     3.45599    -0.50377
O     -1.10346    -0.26117     0.98216
H     -0.42846    -0.15422     0.26975
O     -1.04883     0.97192     1.70572
H     -0.11322     0.96726     2.01075
O      0.15238     2.55452    -0.95934
H     -0.79503     2.75928    -0.83648
O      0.75255     3.25656     0.13404
H      1.28701     2.55404     0.55316
O     -2.41444    -0.23953    -1.84970
H     -2.73728     0.43300    -1.21723
O     -3.29825    -1.32889    -1.63583
H     -2.83399    -1.83709    -0.95730
O      1.53765     0.49543     2.16494
H      1.60564    -0.38912     1.74766
O      2.28128     1.35917     1.30164
H      2.81199     0.76048     0.74054
O      3.15898    -0.84152    -1.29684
H      2.22385    -0.55022    -1.24869
O      3.81481     0.15192    -0.50848
H      4.19964     0.73383    -1.17133
O     -1.06108    -3.34717     0.83098
H     -1.12334    -3.91796     1.60196
O     -2.29693    -2.62925     0.90680
H     -1.96485    -1.72715     1.10312
