 36
-1364.9761075041063
O      2.40691     0.07840     2.35398
H      2.86305     0.02386     1.50314
O      1.92885    -1.26411     2.52069
H      1.45513    -1.17067     3.36313
O     -2.77944    -0.54227     1.28797
H     -2.11891    -0.99209     1.83605
O     -2.72375    -1.22850     0.03942
H     -1.81650    -1.61707     0.01566
O      2.41958     0.64275    -0.47467
H      1.69883    -0.01389    -0.44000
O      1.68253     1.84207    -0.24301
H      1.67419     2.25399    -1.12333
O     -2.19808     0.41536    -2.08128
H     -2.49066    -0.13808    -1.32990
O     -0.98106     0.95884    -1.57661
H     -1.18179     1.26765    -0.66227
O      0.56395    -1.28180    -2.52620
H      0.93340    -0.45545    -2.89573
O     -0.61833    -1.48765    -3.29490
H     -1.21154    -0.81041    -2.92597
O      0.14239    -0.64740     4.46361
H     -0.45917    -0.85017     5.18636
O     -0.76692    -0.52009     3.37619
H     -0.47618     0.32596     2.98661
O      1.46451     1.00742    -3.61362
H      1.35842     1.16892    -4.55708
O      0.87261     2.16987    -3.03211
H      0.08173     1.76228    -2.62175
O     -1.43312     1.73127     0.91859
H     -2.03535     1.02509     1.22800
O     -0.25371     1.51620     1.69489
H      0.45181     1.63126     1.02469
O      0.53063    -1.00996     0.29938
H      0.93686    -1.32619     1.14062
O     -0.22735    -2.12249    -0.18130
H     -0.00105    -2.03290    -1.13954
