 36
-1364.971341707885
O      2.60309     1.40082     1.14159
H      1.67128     1.66795     1.21924
O      2.53971     0.04327     1.57351
H      2.34818    -0.45202     0.74552
O     -0.85499    -3.42077     0.96325
H     -1.19307    -2.54982     0.71042
O      0.51658    -3.13669     1.21686
H      0.47682    -2.69168     2.08447
O     -0.01150     1.94350     1.53899
H     -0.17580     1.62084     2.43957
O     -1.26418     2.45646     1.09345
H     -1.80735     1.65523     1.04205
O      2.91084     1.88727    -1.65324
H      3.17411     1.91508    -0.72163
O      1.49676     1.76706    -1.47565
H      1.12129     2.49163    -1.99713
O     -1.24407     1.33379    -2.47501
H     -2.14909     1.26572    -2.80696
O     -1.16315     2.68407    -2.02219
H     -1.18644     2.57638    -1.06023
O     -2.51808     0.03475    -0.09274
H     -2.39153    -0.53746    -0.86649
O     -1.50858    -0.44867     0.78835
H     -0.68724    -0.33171     0.25493
O      0.43010    -0.58122    -0.89397
H      0.87756     0.26343    -1.16101
O      1.54950    -1.38598    -0.50106
H      1.10550    -2.10086     0.01599
O     -1.81218    -1.68788    -2.36576
H     -0.88335    -1.41652    -2.33131
O     -2.11969    -1.49550    -3.74075
H     -2.20959    -2.40467    -4.04473
O     -0.03989    -1.31148     3.12611
H     -0.81944    -0.98892     2.64774
O      0.61722    -0.07744     3.43291
H      1.39722    -0.10149     2.83676
