 16
-606.6331881715322
O     -2.34547    -0.43577    -0.52263
H     -2.95800    -0.22517     0.18793
O     -1.53324     0.74918    -0.52860
H     -0.64934     0.36832    -0.70189
O      1.01096    -0.00818    -0.94821
H      1.59733     0.75917    -1.00910
O      1.39845    -0.51330     0.34331
H      0.79163    -1.27156     0.40626
O      2.24243     2.43554    -0.27450
H      2.55310     2.16211     0.59577
O      1.26928     3.43010     0.06312
H      0.44740     2.96764    -0.14083
O     -0.62412    -2.38226     0.22659
H     -1.33369    -1.80344    -0.11168
O     -1.17334    -2.77260     1.48662
H     -1.17427    -3.72937     1.38858
