 40
-1516.6346635009315
O      0.68515     3.35502    -0.78128
H      1.34226     2.64839    -0.59825
O      0.51825     3.18056    -2.19001
H      0.71257     4.06287    -2.51881
O     -0.29901    -2.94238     1.18861
H     -0.58643    -3.58027     0.52771
O     -1.33126    -1.95476     1.13404
H     -1.08874    -1.50715     0.28292
O     -1.14887    -0.14004     3.10293
H     -1.39786    -0.75145     2.37814
O      0.26110    -0.34708     3.22151
H      0.33917    -1.29393     3.38846
O     -1.15194     1.98302     0.94675
H     -0.87927     2.71991     0.36708
O     -1.64170     2.62377     2.12830
H     -1.57345     1.86563     2.73114
O     -3.14750    -0.32352    -0.38057
H     -3.80877    -1.01326    -0.27515
O     -3.24334     0.35734     0.88052
H     -2.50487     0.99326     0.78947
O      0.01122    -2.13964    -2.01098
H      0.94631    -1.90862    -2.16744
O     -0.32997    -1.09267    -1.09203
H     -0.66043    -0.36932    -1.68089
O      3.07081    -2.72345    -1.78443
H      2.82747    -2.46195    -0.87702
O      2.60769    -1.55097    -2.46321
H      3.00616    -1.65813    -3.33218
O      1.82441     1.37020     1.21006
H      0.85467     1.42945     1.30573
O      2.00125     1.14843    -0.18202
H      1.79957     0.19914    -0.29771
O      2.00491    -1.75141     0.48829
H      1.15875    -2.14564     0.79240
O      2.73215    -1.55384     1.70112
H      2.61376    -0.59630     1.81111
O     -1.10319     1.02682    -2.50380
H     -0.58242     1.84841    -2.50946
O     -2.40103     1.52831    -2.16157
H     -2.71578     0.82057    -1.56463
