 16
-606.6404068365312
O     -1.98512     0.79414     0.84786
H     -1.52869     1.08487     0.04782
O     -1.22255    -0.34934     1.23020
H     -0.37599     0.03650     1.52878
O      1.68413    -0.52777     1.63985
H      1.78234    -0.62344     2.58883
O      1.20959     0.82360     1.57346
H      1.32240     0.99046     0.61981
O     -0.05480     1.63125    -1.51869
H      0.27301     2.00444    -2.34092
O      1.04395     0.81565    -1.11893
H      0.68489    -0.08967    -1.27050
O     -1.22030    -1.73129    -1.06711
H     -1.26049    -1.24147    -0.21433
O      0.18289    -1.67889    -1.35922
H      0.52389    -2.45534    -0.90437
