 24
-909.9783683985399
O     -2.69972     0.97490    -0.79338
H     -2.07874     1.71385    -0.80717
O     -1.83613    -0.00454    -1.38900
H     -2.41669    -0.77027    -1.41734
O      2.21371     0.23990    -0.30859
H      2.40496    -0.70591    -0.41516
O      1.24862     0.37669    -1.36897
H      0.78814     1.19154    -1.10434
O      0.30869    -2.08256    -1.28694
H      0.47261    -1.14341    -1.50579
O      1.57599    -2.38615    -0.66805
H      1.25347    -2.60671     0.22557
O      0.14692    -2.41335     1.59217
H      0.45264    -1.56125     1.95967
O     -1.06882    -1.94532     0.97062
H     -0.79854    -2.02328     0.03555
O     -0.63153     0.65329     1.51676
H     -1.06756    -0.17691     1.23824
O      0.65833     0.16434     1.92166
H      1.20430     0.32178     1.12468
O      0.53303     3.66215    -0.00431
H     -0.06077     4.34844    -0.32025
O     -0.19960     2.49837    -0.35804
H     -0.34649     2.07588     0.51582
