 20
-758.3059769517519
O     -1.51512     0.44000     1.65955
H     -1.72008     0.54990     2.59150
O     -1.42324    -0.98260     1.57176
H     -0.50960    -1.08816     1.23064
O      0.91940    -1.17142     0.26808
H      1.47317    -0.39575     0.51405
O      0.60668    -0.84671    -1.09669
H     -0.29819    -1.20476    -1.17776
O      1.18973     1.75486     1.84637
H      0.34185     1.41672     1.52648
O      2.11221     1.10076     0.97353
H      2.13995     1.70349     0.20650
O      0.56091     1.83262    -1.36834
H      0.64393     0.85851    -1.36952
O      1.94017     2.20425    -1.49342
H      1.85213     3.10441    -1.81942
O     -2.21420    -2.94839    -1.29018
H     -2.94641    -2.98072    -1.91298
O     -2.04215    -1.53690    -1.15042
H     -2.25944    -1.40610    -0.21348
