 20
-758.2961958315624
O     -1.01851    -0.11787     0.06169
H     -1.90543    -0.51457     0.01217
O     -0.93190     0.46352    -1.25160
H     -0.20108    -0.05945    -1.62908
O      1.98097     0.10487    -1.46988
H      1.91270    -0.30457    -0.58567
O      1.23396    -0.84216    -2.24250
H      1.58605    -0.67527    -3.12081
O      0.20868     1.78537     1.58396
H     -0.23593     1.08074     1.07973
O      0.87245     1.00714     2.59196
H      1.49796     1.65014     2.93899
O      3.17293    -1.14449     1.45090
H      3.18787    -2.10341     1.51414
O      1.82054    -0.93959     1.03353
H      1.50448    -0.31138     1.71617
O     -3.82744     0.09443    -1.66128
H     -2.94719     0.49007    -1.74394
O     -3.67513    -0.60394    -0.41614
H     -4.27803    -0.11902     0.15715
