 24
-909.9738306684745
O     -1.93441    -0.08310     1.13683
H     -2.13793     0.21097     0.23153
O     -0.84490    -0.97951     0.87121
H     -0.34509    -0.89561     1.71579
O      0.92626    -2.27516    -2.40448
H      1.51559    -2.75387    -2.99795
O      0.51924    -1.17566    -3.22289
H      0.95939    -0.44764    -2.75991
O      1.90277    -0.80305    -0.32512
H      1.62455    -1.59252    -0.81636
O      0.89383     0.11307    -0.75399
H      0.11282    -0.29448    -0.30827
O     -1.95603     1.05566    -1.28843
H     -1.37591     1.77291    -0.98545
O     -1.60465     0.94603    -2.66152
H     -1.25038     0.04808    -2.70791
O      0.60926    -0.39908     2.99899
H      0.54216     0.56889     3.03421
O      1.99465    -0.63056     2.74493
H      2.00051    -0.73198     1.78228
O     -0.25703     2.40691     0.67803
H      0.45233     1.78153     0.47414
O     -0.58510     2.07500     2.03305
H     -1.27508     1.40512     1.87934
