 36
-1364.9720249141212
O      1.24250     1.96482     0.72347
H      1.23759     1.80940    -0.25131
O      1.58857     0.67655     1.23308
H      0.84784     0.45247     1.83977
O     -0.35427    -2.10562    -1.13810
H      0.54239    -1.92953    -0.80733
O     -1.15322    -1.87906     0.02249
H     -1.39465    -0.92385    -0.06041
O     -1.64250    -0.01241     2.49006
H     -1.85951     0.84307     2.87922
O     -0.30131    -0.14999     2.96872
H     -0.25363    -1.10256     3.13567
O      2.36908    -0.92324    -0.70106
H      2.10653    -0.41214     0.10561
O      3.67621    -1.35583    -0.37761
H      4.21432    -0.66976    -0.78194
O     -1.25699     2.64596     1.21755
H     -0.28080     2.54809     1.25587
O     -1.60392     2.79095     2.59164
H     -2.33110     3.41291     2.50503
O     -1.68699     0.65464    -0.53751
H     -1.59619     1.39427     0.09737
O     -2.98874     0.88785    -1.07580
H     -2.78915     0.78438    -2.01309
O      2.12305     1.07055    -2.47674
H      2.26395     0.26677    -1.94486
O      0.90529     1.53266    -1.87528
H      0.24394     0.94611    -2.29399
O     -0.66741    -0.31056    -3.06658
H     -0.69920    -1.06272    -2.43202
O     -1.89996    -0.44665    -3.76545
H     -1.58476    -0.46218    -4.67182
O      1.51051    -2.37055     1.72454
H      1.99334    -3.19334     1.59008
O      0.21619    -2.82543     2.13040
H     -0.32672    -2.55695     1.35933
