 36
-1364.973572978384
O      2.26595     0.45078     1.89300
H      1.69933     1.02600     1.33777
O      3.53711     0.60611     1.26707
H      3.97304    -0.19785     1.56367
O     -2.90305    -0.00416     1.77236
H     -2.68759    -0.81050     1.25883
O     -2.30085     1.01695     0.98004
H     -1.37749     1.04794     1.28917
O      0.43600     2.74790    -0.36257
H     -0.43033     2.73446    -0.81538
O      0.43648     1.49503     0.30489
H      0.46344     0.84926    -0.42852
O      2.26484     0.35095    -1.55351
H      2.66682     1.22063    -1.41963
O      2.38346     0.09979    -2.95191
H      1.46823     0.24247    -3.23465
O     -1.02188    -2.77859     0.97704
H     -0.73671    -2.13268     1.65315
O     -2.02646    -2.05465     0.26841
H     -1.50931    -1.58102    -0.40980
O     -2.52067     1.52475    -1.61107
H     -2.46137     1.33665    -0.64505
O     -1.91548     2.81057    -1.71754
H     -2.65116     3.40944    -1.54990
O     -0.50203     0.24843     3.03691
H     -1.36827    -0.05231     3.33235
O      0.07538    -0.99805     2.63342
H      0.97967    -0.70854     2.40396
O     -0.52426    -0.70275    -1.47547
H      0.20782    -1.33474    -1.58266
O     -0.69708    -0.16046    -2.79092
H     -1.45948     0.41560    -2.61438
O      1.17043    -2.78729    -0.60505
H      0.43855    -3.02966    -0.00569
O      1.96932    -1.97843     0.26774
H      2.37362    -1.37051    -0.36776
