 36
-1364.9708205660618
O      1.04149     2.54792    -0.56775
H      0.74109     2.58203    -1.50235
O      0.88092     1.12414    -0.40749
H      1.53043     0.89147     0.30039
O     -2.93023    -2.47254     0.06455
H     -3.34006    -3.29050    -0.22645
O     -2.14799    -2.13441    -1.08463
H     -2.13950    -1.15984    -1.02340
O      1.64356     0.08355     2.71905
H      1.41329     1.03362     2.76084
O      2.39529     0.09299     1.49163
H      2.41783    -0.85424     1.24349
O      1.84738    -0.90660    -2.22921
H      1.86505    -0.00782    -1.87856
O      0.42415    -1.07102    -2.39123
H      0.27859    -1.91543    -1.93275
O      0.85625     2.58392     2.17321
H      0.91716     2.92634     1.26444
O     -0.52710     2.74093     2.49426
H     -0.97726     2.26721     1.77833
O     -1.65176     0.49480    -0.58436
H     -0.67860     0.62659    -0.52234
O     -2.05776     0.77250     0.75837
H     -1.62712     0.03960     1.24984
O     -1.20311     2.46887    -2.81500
H     -1.54459     2.08408    -1.99439
O      0.06548     1.83310    -2.94374
H     -0.14826     0.88835    -3.00130
O     -0.45508    -1.13366     1.61074
H      0.14704    -0.83098     2.32574
O     -1.35878    -2.04516     2.24745
H     -1.91154    -2.24486     1.47071
O      0.92587    -2.61255    -0.18107
H      0.42000    -2.07839     0.45857
O      2.27349    -2.20199     0.07282
H      2.49375    -1.86549    -0.81145
