 24
-909.9801405232846
O      1.44852    -2.05989    -0.85330
H      2.20827    -1.46708    -0.94408
O      1.23820    -1.97285     0.56058
H      0.32596    -1.62400     0.61603
O     -2.16467    -1.90018     0.36506
H     -2.31783    -2.54217     1.06292
O     -1.22737    -1.03867     1.01343
H     -1.71645    -0.18787     1.00940
O      3.16198     0.10658    -0.09626
H      2.59210     0.81788    -0.43654
O      2.70912     0.08995     1.26983
H      2.26797    -0.78170     1.26377
O     -1.96577     2.10045     0.01872
H     -1.05053     2.06543     0.36373
O     -2.60718     1.24749     0.96864
H     -3.15302     1.85801     1.47481
O     -1.67513     0.12141    -2.09376
H     -1.78961     0.91758    -1.55687
O     -0.26370    -0.08318    -1.98496
H     -0.20825    -1.00407    -1.68957
O      0.50648     1.51334     0.81528
H      1.27471     1.10832     1.26679
O      1.04423     1.64880    -0.50651
H      0.51411     0.98554    -1.00478
