 16
-606.6399671311567
O     -0.80182    -1.45974     1.30248
H     -1.32809    -1.76299     2.04590
O     -1.31219    -0.14189     1.12121
H     -0.54109     0.40744     1.38615
O      1.89397     1.01468     1.41414
H      1.72395     0.63942     0.52212
O      0.61194     1.57571     1.72466
H      0.69005     2.47498     1.39283
O      1.21752    -0.01698    -0.96271
H      0.39078    -0.19696    -1.45990
O      1.67219    -1.32271    -0.61330
H      1.05781    -1.55634     0.09454
O     -1.70084     0.56241    -1.47373
H     -1.69696     0.21768    -0.56521
O     -1.11692    -0.55302    -2.15472
H     -1.43344    -0.41385    -3.05172
