 40
-1516.6414714925033
O      0.16038    -1.09777    -2.01238
H     -0.24398    -0.34405    -1.52538
O      1.48654    -1.10188    -1.48457
H      1.40151    -1.78581    -0.79120
O     -1.86352     1.60051     1.94914
H     -1.90687     0.72097     2.33953
O     -0.44118     1.75144     1.91167
H     -0.34201     2.71728     1.92488
O      2.62310     1.07428     1.21337
H      2.85661     0.99454     0.27648
O      1.91613    -0.13936     1.41471
H      1.02125     0.16382     1.65711
O     -0.80514    -1.03563     1.69586
H     -0.42456    -1.90832     1.49527
O     -2.16067    -1.34755     2.02558
H     -2.62248    -1.03815     1.22039
O      0.30762     3.96548     0.47975
H     -0.08656     3.48369    -0.27475
O      1.70069     3.73345     0.28487
H      1.88355     3.02140     0.91588
O     -0.71109     1.00900    -0.69285
H     -0.62691     1.27662     0.24997
O     -0.53230     2.23069    -1.42276
H      0.29328     1.99638    -1.90404
O     -3.26504    -0.27468    -0.18038
H     -2.75997     0.49321    -0.48399
O     -3.15412    -1.14398    -1.31507
H     -2.62206    -1.87484    -0.95617
O     -0.84323    -3.55634    -1.66383
H     -0.54937    -2.64378    -1.86779
O     -1.69478    -3.28965    -0.54259
H     -2.28179    -4.05434    -0.54622
O      1.58087    -2.76063     1.78553
H      1.93363    -1.85667     1.70793
O      1.11759    -2.92498     0.44399
H      0.99382    -3.87775     0.37401
O      1.78075     1.37568    -2.41100
H      1.80356     0.42215    -2.18320
O      2.86130     1.89911    -1.63551
H      2.46797     2.71797    -1.30095
