 32
-1213.3089920808206
O      2.25952    -0.05669    -1.84822
H      1.50592    -0.50351    -2.29630
O      2.58613    -1.02758    -0.85440
H      3.50445    -1.22331    -1.05921
O      0.81254    -0.42342     1.09210
H      1.60007    -0.58033     0.54184
O      1.34750     0.13542     2.29093
H      0.56745     0.62574     2.57835
O     -0.00757    -1.13677    -2.72224
H     -0.20765    -2.04827    -2.42166
O     -1.10003    -0.42440    -2.13233
H     -0.66394     0.38383    -1.77620
O      1.04049     3.29997     1.88845
H      1.13638     3.00052     0.96710
O     -0.22553     3.94970     1.80312
H     -0.09051     4.72140     2.35824
O     -0.76236    -3.42354    -1.51611
H     -1.05004    -3.07217    -0.64088
O      0.36925    -4.22033    -1.16942
H      0.03955    -5.09955    -1.37718
O     -0.25764     1.75878    -0.88699
H     -0.58562     1.60113     0.02015
O      1.11084     2.08847    -0.62065
H      1.56758     1.32757    -1.02775
O     -1.15540     1.51208     1.60888
H     -1.04591     2.43027     1.93195
O     -2.29143     1.02065     2.32229
H     -2.56553     0.32087     1.71348
O     -2.39663    -1.16321     0.12777
H     -2.05576    -0.93407    -0.75719
O     -1.32892    -1.97062     0.62505
H     -0.61159    -1.32856     0.81059
