 24
-909.9754869961749
O     -1.34803    -2.55828     1.67658
H     -1.61642    -3.48278     1.70908
O     -0.33109    -2.59601     0.66995
H      0.43745    -2.27338     1.17780
O     -0.14574    -0.33470    -1.81958
H     -0.38627     0.57636    -2.07479
O     -1.29337    -0.71718    -1.05068
H     -0.92308    -1.42690    -0.48946
O      1.99007    -0.03749    -0.30239
H      1.19883    -0.17502    -0.88479
O      2.89102    -1.02347    -0.80412
H      3.56300    -0.46163    -1.20000
O     -1.67281     2.91581    -2.44741
H     -1.38385     3.73307    -2.86175
O     -0.43077     2.38688    -1.99403
H     -0.51465     2.44996    -1.02032
O      1.39357    -0.99613     2.09761
H      1.75878    -0.55750     1.29814
O      0.46497    -0.00138     2.55345
H     -0.35182    -0.51081     2.62795
O     -0.31709     1.71864     0.64588
H      0.11856     1.20420     1.35189
O     -1.66379     1.22562     0.77251
H     -1.65885     0.54723     0.06879
