 40
-1516.6445734641668
O      2.92943    -0.16206    -0.52985
H      2.63957    -0.52014     0.33423
O      2.46639     1.19385    -0.44374
H      2.39204     1.44174    -1.38758
O      0.89748    -0.20687     2.19507
H      0.65959     0.25934     1.37792
O      1.88823    -1.13230     1.74839
H      1.36311    -1.94952     1.64424
O     -0.53884     0.89758    -0.25099
H     -0.18555     1.00323    -1.16638
O     -1.34547     2.08214    -0.12969
H     -2.05260     1.71753     0.45458
O     -1.66542    -1.43175     0.04491
H     -1.25824    -0.53189     0.07166
O     -2.04671    -1.46833    -1.33130
H     -1.17723    -1.39966    -1.75923
O     -1.15213    -1.60402     3.11117
H     -0.36421    -1.04787     2.93857
O     -2.02207    -0.62334     3.68275
H     -2.41346    -1.10534     4.41611
O      0.37700     3.85065    -1.23871
H     -0.33948     3.37062    -0.77942
O      1.32767     4.06902    -0.20080
H      1.67062     3.17455    -0.05885
O      1.64579     2.14985    -2.80214
H      1.21758     2.95019    -2.42144
O      0.55135     1.22973    -2.68765
H      0.95465     0.40277    -3.01203
O     -2.88657     0.78522     1.56723
H     -2.69344     0.25248     2.36214
O     -3.97063     0.07212     0.95957
H     -3.49094    -0.61060     0.46932
O      0.86667    -3.54421    -0.28706
H      0.63698    -4.47728    -0.34317
O      0.22585    -3.14082     0.91866
H     -0.55249    -2.63154     0.58373
O      0.59682    -1.45793    -1.89735
H      0.84160    -2.23226    -1.35118
O      1.76622    -1.20645    -2.66070
H      2.36387    -0.87496    -1.95117
