 32
-1213.3075268862297
O      4.51391    -1.47497    -1.27333
H      5.16573    -2.05211    -0.86570
O      3.67472    -1.18156    -0.15722
H      2.81101    -1.49664    -0.47830
O     -0.08042     0.46515     2.75646
H     -0.85103     0.07534     3.18544
O      0.48236    -0.67800     2.09478
H      1.11025    -0.22594     1.49559
O     -1.52023     0.64753    -2.44427
H     -0.70188     0.14546    -2.23032
O     -2.55033    -0.24072    -2.03997
H     -2.90691    -0.52773    -2.88634
O     -1.14516     2.84423    -0.87735
H     -1.38602     2.27823    -1.62660
O     -0.75103     1.83786     0.05256
H     -1.56368     1.61232     0.54274
O      1.68672     0.96678     0.36808
H      0.82382     1.40042     0.17962
O      2.44121     1.27509    -0.80097
H      3.22848     0.74062    -0.62161
O      0.84238    -0.49838    -1.95629
H      1.46970     0.20827    -1.69427
O      1.05392    -1.43571    -0.88849
H      0.13200    -1.70710    -0.68656
O     -1.46589    -1.98538    -0.31000
H     -1.98417    -1.34864    -0.83709
O     -1.74289    -1.58432     1.02960
H     -0.84024    -1.39053     1.38266
O     -2.92351     0.75850     1.75943
H     -2.66265    -0.13746     1.48050
O     -2.86418     0.59434     3.17686
H     -2.81778     1.51272     3.45233
