 36
-1364.9721630914894
O      1.14326     2.57354    -0.89791
H      1.33966     2.37737     0.03282
O     -0.17272     3.13908    -0.81598
H     -0.63676     2.61876    -1.49528
O     -0.99940    -2.74368     2.20502
H     -1.52604    -3.20636     2.86516
O     -0.65469    -1.53040     2.86899
H     -1.30924    -0.90928     2.48425
O      1.66323    -1.43283    -1.64657
H      1.88198    -0.93654    -2.44509
O      0.54295    -0.66329    -1.22092
H     -0.15182    -1.34322    -1.08243
O     -1.32956     1.36329    -2.46271
H     -0.52186     0.81859    -2.46847
O     -2.24282     0.53204    -1.76205
H     -2.22542     0.92651    -0.86391
O      1.27412     0.77430    -3.74031
H      0.87126     1.06079    -4.56774
O      2.31274     1.73516    -3.55147
H      1.98589     2.17870    -2.75162
O      0.56646     0.57385     1.13452
H      0.75616     0.12835     0.27189
O      1.80394     1.22766     1.43370
H      2.18292     0.53454     2.00826
O     -2.54247    -0.10659     1.55094
H     -2.78128    -0.71274     0.82201
O     -2.01926     1.01373     0.83571
H     -1.05284     0.94430     1.01268
O      2.81751    -0.82225     4.11162
H      3.50773    -1.49119     4.14889
O      2.27886    -1.05848     2.81134
H      1.36376    -1.29149     3.02719
O     -2.69264    -1.82614    -0.50372
H     -2.58777    -1.17037    -1.21604
O     -1.37305    -2.36823    -0.42626
H     -1.27270    -2.52547     0.53282
