 32
-1213.3059855470888
O      3.79067     2.13099    -0.11104
H      3.03531     2.71363     0.06616
O      3.75912     1.32442     1.06834
H      4.66388     1.39647     1.38730
O     -0.94231    -2.34097    -0.70600
H     -1.45410    -3.09465    -1.02756
O     -0.02240    -2.93728     0.21643
H     -0.32715    -2.53566     1.05545
O     -3.63989    -1.06286    -1.59016
H     -4.36435    -0.51788    -1.91823
O     -2.88361    -1.32037    -2.76707
H     -2.11946    -0.73175    -2.61826
O      0.66847     2.24480     0.57384
H      0.64264     1.73771    -0.26590
O      1.36153     3.40944     0.11794
H      0.99503     4.07454     0.70506
O      2.05811    -0.73291     1.00415
H      2.68514     0.01403     0.90087
O      2.08621    -1.32978    -0.29309
H      1.48941    -2.08539    -0.14153
O      0.44895     0.70866    -1.56376
H      0.78896    -0.17180    -1.32753
O     -0.90374     0.44468    -1.93873
H     -1.36537     0.71079    -1.11509
O     -0.90555    -1.44048     2.30573
H     -1.79011    -1.21290     1.96857
O     -0.27619    -0.17050     2.08633
H      0.58935    -0.43845     1.71001
O     -2.02053     0.91168     0.43670
H     -1.25459     0.82327     1.04257
O     -2.77682    -0.24683     0.82027
H     -2.97592    -0.63728    -0.04824
