 32
-1213.3174091772419
O     -1.43661    -0.65750     1.96722
H     -0.67718    -0.86107     2.54536
O     -0.87530    -0.91489     0.68399
H     -0.27292    -0.14018     0.62428
O     -1.02016    -0.25612    -2.28603
H     -0.52494    -0.97613    -2.70554
O      0.07546     0.65392    -2.05712
H     -0.35449     1.53086    -2.15166
O      0.71181    -1.14198     3.53927
H      1.07655    -1.73267     4.20471
O      1.87276    -0.65756     2.87252
H      1.92518    -1.25537     2.09882
O     -1.12487     3.05458    -1.99431
H     -2.08405     3.10204    -1.89430
O     -0.65700     3.18354    -0.64787
H     -1.22898     2.54195    -0.17349
O      0.60230     1.17853     1.14114
H      1.09279     1.03699     1.96620
O      1.62703     1.65230     0.26262
H      1.17106     2.42357    -0.10587
O      2.07831    -1.02642    -1.71070
H      1.52779    -0.21943    -1.71967
O      1.17867    -1.91564    -2.39366
H      0.97732    -2.52016    -1.65452
O      0.81159    -2.85754     0.05559
H      0.09201    -2.23866     0.29935
O      1.95579    -2.19689     0.61585
H      2.23670    -1.66113    -0.16107
O     -3.23771     0.93833    -0.57244
H     -2.62283     0.36171    -1.05226
O     -2.38467     1.46277     0.45109
H     -2.28666     0.71375     1.07016
