 40
-1516.644586216174
O      1.42147     2.02290     1.16181
H      0.77273     1.82713     0.45193
O      2.67624     2.20413     0.51776
H      2.89835     1.29405     0.26894
O     -1.72148     2.24522     0.02290
H     -1.51005     2.39983     0.96538
O     -0.73271     1.28225    -0.32830
H     -0.99787     0.51201     0.23195
O     -1.09278     2.42660     2.72355
H     -1.14188     1.46357     2.90232
O      0.02538     2.81525     3.52106
H      0.64916     3.07223     2.82968
O      2.24180    -0.33556     2.60952
H      1.83256     0.54070     2.54844
O      1.25486    -1.16067     2.00817
H      1.42750    -1.05907     1.04507
O     -1.64631    -0.48591     1.40304
H     -1.56369    -1.46504     1.34348
O     -1.08721    -0.26038     2.70831
H     -0.17584    -0.62418     2.57316
O     -0.42702    -3.17629    -0.09656
H     -1.16307    -2.75635    -0.57598
O     -0.83656    -2.97871     1.25810
H      0.01894    -2.87617     1.69402
O      0.99053     1.44620    -2.91254
H      0.96088     2.32082    -3.30991
O     -0.37817     1.05129    -2.94526
H     -0.64543     1.16517    -2.00172
O     -2.37384    -1.92441    -1.50402
H     -2.06134    -2.04889    -2.41369
O     -2.66430    -0.52511    -1.53212
H     -3.00389    -0.38861    -0.63961
O      2.48967    -0.20408    -1.25916
H      1.97122     0.40318    -1.80984
O      1.43821    -0.92138    -0.62181
H      1.09237    -1.50756    -1.33367
O      0.64487    -2.03605    -2.89927
H      1.28316    -2.24043    -3.59144
O     -0.49214    -1.58373    -3.62887
H     -0.44578    -0.62022    -3.47651
