 28
-1061.650971374299
O      0.78861    -0.92087    -3.21743
H     -0.08101    -1.32049    -3.03638
O      0.40747     0.46578    -3.14264
H      0.92827     0.71771    -2.36202
O     -0.94805    -1.70845     1.35322
H     -1.72307    -1.14506     1.17242
O     -0.44808    -1.93438     0.03936
H      0.40384    -1.45468     0.02118
O      0.57193    -0.20164     2.96829
H      0.02331    -0.76918     2.38958
O     -0.37223     0.81689     3.33988
H      1.84847     0.58339     2.12422
O     -1.96819     0.09951    -2.05047
H     -1.30027     0.48691    -2.65047
O     -1.64593    -1.28811    -2.22098
H     -1.36624    -1.53678    -1.31747
O     -2.34480     0.55705     1.26730
H     -1.96407     0.81195     2.11775
O     -1.26670     0.93919     0.40897
H     -1.60074     0.65302    -0.46592
O      1.12544     2.22840     1.59133
H      0.51306     1.84777     0.94254
O      2.20105     1.28899     1.53914
H      0.09429     1.59177     2.98492
O      1.95215    -0.96618    -0.65404
H      1.92534    -1.30644    -1.55945
O      1.94018     0.44005    -0.95385
H      2.28833     0.80791    -0.11271
