 16
-606.6364508111355
O     -1.03042     0.81755     0.65169
H     -1.16815    -0.05207     0.22261
O     -2.38980     1.20195     0.90402
H     -2.35237     1.36837     1.85045
O      2.19108    -0.12770     1.27675
H      1.79806     0.35373     0.53100
O      1.19570    -1.10909     1.54635
H      0.74377    -0.75634     2.32084
O      1.26434     0.96005    -1.34002
H      0.86135     0.11905    -1.60063
O      0.27127     1.90728    -1.74393
H     -0.22234     2.02653    -0.92113
O     -1.19335    -1.58130    -0.48779
H     -1.63446    -1.92407    -1.27138
O      0.18999    -1.71147    -0.84078
H      0.58434    -1.62357     0.04943
