 32
-1213.3179784238987
O      0.42614     0.01435     1.82229
H      0.11377     0.72210     1.21770
O      1.79568    -0.14415     1.46642
H      1.74965    -0.72072     0.67391
O     -1.96274    -0.85030    -0.87186
H     -1.07099    -1.25652    -0.87577
O     -1.87521     0.11328    -1.92926
H     -1.95904     0.93916    -1.40995
O      3.27660     1.18969    -0.82162
H      4.20306     1.45301    -0.82498
O      2.74042     1.99044     0.23271
H      2.45132     1.27659     0.84486
O     -0.42671     1.96637     0.16015
H      0.03065     1.93147    -0.70768
O     -1.77684     2.18174    -0.25071
H     -2.27716     1.88320     0.53423
O      0.96673     1.57225    -2.08145
H      1.89355     1.46700    -1.77731
O      0.70480     0.29056    -2.67335
H     -0.27221     0.23205    -2.59803
O      1.59730    -1.45826    -0.86506
H      1.41984    -0.83372    -1.59939
O      0.35021    -2.16757    -0.83081
H      0.45883    -2.70487    -0.01872
O      0.43313    -3.25635     1.58310
H      0.19163    -4.06371     2.04494
O     -0.69776    -2.43108     1.83231
H     -0.26334    -1.56955     1.98939
O     -3.39795     1.02929     1.52397
H     -3.70153     1.17354     2.42414
O     -2.64737    -0.17774     1.67033
H     -2.57912    -0.46058     0.73913
