 24
-909.9710381994155
O     -0.96302    -1.01278    -1.45750
H     -1.74443    -0.43290    -1.42060
O     -1.24607    -1.93981    -0.41112
H     -1.21036    -2.76701    -0.90077
O     -1.89935     0.35941     1.76341
H     -2.11758     0.42056     0.82513
O     -0.46933     0.39012     1.71586
H     -0.21869    -0.52789     1.92162
O      0.24601     1.43693    -0.58501
H      0.07373     1.11756     0.33201
O      1.30918     2.36494    -0.37601
H      2.04526     1.82146    -0.68748
O     -2.73463     0.97264    -1.16959
H     -3.48781     1.54968    -1.00539
O     -1.94169     1.77351    -2.05064
H     -1.09791     1.79606    -1.54964
O      1.93575    -1.19341     2.22040
H      2.46269    -1.76091     2.79190
O      1.06433    -2.15577     1.60882
H      1.27396    -2.00698     0.67088
O      2.76507    -0.00737    -0.41539
H      2.67306    -0.09248     0.54345
O      1.84012    -1.00671    -0.86529
H      1.08272    -0.48122    -1.17588
