 32
-1213.3091270977488
O      1.50589    -2.52876     0.17044
H      2.28748    -1.95433     0.12252
O      0.68350    -1.78580     1.06994
H     -0.22178    -1.94345     0.72409
O      0.29178    -2.13924    -2.20330
H      0.77497    -2.42108    -1.39942
O      0.68241    -0.76639    -2.32019
H      1.65481    -0.82229    -2.37309
O     -2.10461    -1.41986    -1.15211
H     -1.26434    -1.70717    -1.56548
O     -1.84442    -1.63197     0.23207
H     -2.07729    -0.76653     0.60857
O     -1.60729     2.38789    -0.76120
H     -0.76935     2.81171    -0.50172
O     -1.05878     1.08723    -1.01242
H     -1.73978     0.61550    -1.51500
O      1.47298     1.35122    -0.60246
H      0.64951     0.91915    -0.91856
O      0.95679     2.43357     0.16722
H      0.77846     1.96393     1.00639
O      3.33484    -0.77798    -1.96565
H      4.06259    -0.22202    -2.26354
O      3.30281    -0.54119    -0.55967
H      2.68767     0.22665    -0.50161
O     -0.34190     0.44650     3.19096
H     -1.12097     0.93045     2.89116
O      0.55751     0.69631     2.11010
H      0.68634    -0.20402     1.75761
O     -2.64242     2.06899     1.81530
H     -2.45587     2.18770     0.86910
O     -2.93252     0.67189     1.83940
H     -3.72816     0.63929     2.37845
