 32
-1213.3128610838737
O      2.11524     0.31756     2.27309
H      1.89706    -0.35609     1.60470
O      2.71723     1.35917     1.49615
H      2.03268     2.04482     1.60598
O      0.96374    -1.61625     0.72400
H      0.04970    -1.50349     1.04979
O      0.74619    -2.21453    -0.55468
H      1.23414    -1.59864    -1.11881
O      0.18091     0.31329    -3.47127
H      0.23644    -0.09610    -4.33860
O     -0.75956    -0.53282    -2.80768
H     -1.16628     0.11632    -2.18871
O     -1.73919     1.07336    -0.92605
H     -2.06793     0.66999    -0.08923
O     -0.67004     1.86754    -0.40108
H      0.09532     1.28976    -0.58903
O      1.41544     0.41434    -1.15009
H      1.24274     0.47399    -2.11243
O      2.84125     0.49713    -1.06918
H      2.92284     0.87014    -0.17254
O     -2.05239     0.16295     1.50566
H     -1.48147     0.62938     2.15380
O     -1.55495    -1.17858     1.54967
H     -2.10726    -1.57280     0.84270
O     -1.81145    -2.93947    -1.00823
H     -0.89992    -2.60166    -0.90345
O     -2.59751    -1.76765    -0.80344
H     -2.84092    -1.50923    -1.70168
O     -0.16816     1.49047     2.87213
H      0.61796     0.91222     2.93162
O      0.36474     2.49769     2.00318
H     -0.17760     2.37657     1.19958
