 32
-1213.3025895075266
O      1.99457    -2.01393     0.56952
H      1.43011    -2.08354    -0.22300
O      3.28217    -1.76630     0.01348
H      3.71731    -2.61389     0.15270
O     -1.00969    -2.34076     1.23462
H     -0.65080    -1.57166     1.72331
O     -0.72292    -1.94254    -0.11010
H     -1.59604    -1.96225    -0.52730
O     -2.57028    -0.09200    -1.69475
H     -3.13306     0.35549    -2.33599
O     -1.26215     0.32517    -2.08414
H     -1.02253     0.89262    -1.31099
O     -1.47390     2.88215     0.55012
H     -2.15299     2.34286     0.97828
O     -0.68608     1.81488     0.01855
H      0.20782     2.21693    -0.11206
O      2.73152     2.06336     0.30546
H      2.20476     1.47825     0.88104
O      1.78302     2.35854    -0.72233
H      1.98727     1.66748    -1.38036
O      1.34388    -1.06129    -2.17402
H      0.50021    -0.60067    -2.29535
O      2.25792     0.03451    -2.07318
H      2.89107    -0.33706    -1.44329
O     -0.08921    -0.03261     2.26923
H     -0.68205     0.41264     1.63891
O      1.17644     0.29608     1.70810
H      1.48769    -0.57581     1.38753
O     -3.62662    -0.87925     1.32027
H     -2.98046    -1.52249     1.64557
O     -2.75907     0.19548     0.95331
H     -2.74344     0.10208    -0.01883
