 24
-909.9815061272725
O     -1.98677     0.59151    -1.57209
H     -1.38418     1.28806    -1.27531
O     -1.21961    -0.57035    -1.27383
H     -1.63294    -0.90396    -0.44565
O      1.94688    -0.44177    -2.02124
H      2.25179    -1.11238    -2.64072
O      0.86279     0.17437    -2.71488
H      0.09239    -0.25056    -2.27200
O      1.55974    -0.94884     0.57846
H      1.64926    -0.69565    -0.36037
O      0.92965    -2.22322     0.47387
H      0.24232    -2.15471     1.15058
O     -2.43917    -1.46888     0.93921
H     -3.23183    -1.09677     1.33903
O     -1.52981    -1.57686     2.03487
H     -1.16418    -0.66273     2.08696
O     -0.40980     0.80675     1.93201
H      0.04699     1.25448     1.19541
O      0.68296     0.33549     2.71790
H      1.15354    -0.19194     2.04077
O      1.09672     2.05947     0.08568
H      1.55078     2.86749     0.35391
O      0.38508     2.46269    -1.08251
H      0.80875     1.89468    -1.74624
