 40
-1516.6425067937828
O     -0.03191    -0.09078    -2.90242
H     -0.54460    -0.91754    -2.91524
O      0.79153    -0.25816    -1.75998
H      0.23795     0.15388    -1.06567
O      2.22286    -2.32496     0.24805
H      2.90694    -2.96950     0.04179
O      2.79471    -1.11440    -0.23197
H      2.10705    -0.82547    -0.87209
O      2.57333     3.45867     3.32358
H      2.68263     2.88112     2.54043
O      1.42367     4.22309     2.94251
H      1.81241     5.01202     2.55123
O      0.20937     2.69483     0.38285
H     -0.49761     2.21157    -0.09759
O     -0.31944     2.62660     1.71264
H      0.31034     3.21003     2.19517
O     -2.27130    -3.06387    -2.38141
H     -1.47863    -3.25230    -1.83355
O     -1.71094    -2.18733    -3.35401
H     -1.70679    -2.73140    -4.14745
O      2.58990     0.77137     1.74520
H      2.91594     0.14769     1.07417
O      2.69677     2.00942     1.04777
H      1.77990     2.15102     0.71350
O     -1.00974     0.06064     1.87111
H     -1.06058     1.03460     1.90882
O      0.15937    -0.06688     1.06025
H      0.89395     0.15812     1.66061
O     -0.91099    -3.61338     0.27909
H     -1.60804    -2.95974     0.47876
O     -0.20837    -2.93095    -0.75722
H      0.58820    -2.60319    -0.29773
O     -2.74949    -1.66812     0.70920
H     -2.19121    -0.99180     1.14662
O     -3.06300    -1.02259    -0.53194
H     -3.08024    -1.77623    -1.14571
O     -1.59585     1.19792    -0.86423
H     -2.19489     0.42516    -0.76300
O     -1.89531     1.66389    -2.18368
H     -1.18873     1.19875    -2.66573
