 28
-1061.6392988778864
O     -1.23325     0.61256     1.23979
H     -1.16006     1.31903     0.57028
O      0.05112     0.70537     1.87272
H      0.14824    -0.18968     2.27110
O      0.45354    -1.81318     2.60315
H      0.16885    -2.39401     1.88206
O      1.83607    -2.12886     2.79098
H      2.22035    -1.89469     1.93044
O      2.71181    -1.59175     0.21085
H      2.39501    -0.69663    -0.04871
O      1.88897    -2.41381    -0.61721
H      0.33666    -1.74717    -0.79718
O     -1.06875     2.43265    -0.73583
H     -1.53283     2.04247    -1.50908
O     -1.33358     3.83078    -0.85394
H     -1.84754     3.97716    -0.05534
O     -2.62105     0.13278    -1.58559
H     -1.86600    -0.48550    -1.49389
O     -2.18066     0.93199    -2.68645
H     -2.95930     0.93162    -3.25054
O     -1.22953    -1.87013     0.25891
H     -1.39003    -1.00866     0.69127
O     -0.57285    -1.41078    -0.92070
H      2.51508    -2.72983    -1.27585
O      1.54155     0.70923    -0.33500
H      1.09449     0.80863     0.54133
O      2.07345     2.00801    -0.55767
H      1.34851     2.40939    -1.04672
