 20
-758.3000790198455
O     -3.27776    -1.55699     1.21506
H     -4.22122    -1.37285     1.25831
O     -2.79531    -0.93975     2.40659
H     -2.29394    -0.19297     2.05003
O      1.26876     0.30983    -2.54395
H      1.63441     0.81062    -1.78573
O      2.22569    -0.75438    -2.63397
H      2.66986    -0.53650    -3.45874
O     -0.81371     1.03520     1.34471
H     -0.64108     0.42302     0.59484
O      0.49430     1.12736     1.92323
H      0.38914     1.89904     2.48883
O      2.18105     1.20366    -0.16748
H      1.59323     1.13341     0.60954
O      3.22705     0.28510     0.17183
H      3.07623    -0.40997    -0.48300
O     -0.54972    -0.74263    -0.55994
H     -0.10648    -0.56932    -1.40667
O     -1.92637    -0.54994    -0.89836
H     -2.33448    -1.06002    -0.17931
