 40
-1516.6417716607857
O      1.40473     2.07199     1.59185
H      0.73036     1.89562     0.89340
O      2.61331     1.77947     0.88002
H      2.52445     2.29216     0.05890
O     -1.03570     2.95499    -0.22175
H     -1.44045     2.74386     0.65049
O     -0.25788     1.77358    -0.38377
H     -0.91304     1.04111    -0.54209
O     -1.98967     2.12993     2.08402
H     -2.13819     1.20336     2.33883
O     -1.21088     2.67566     3.14045
H     -0.34505     2.76233     2.71666
O      0.90726    -0.69420     2.51067
H      1.18295     0.23133     2.59644
O      0.00986    -0.58619     1.40587
H      0.48051    -1.00297     0.65752
O     -3.17134    -1.35396     1.07208
H     -3.04782    -2.31108     1.23074
O     -2.50412    -0.78950     2.21135
H     -1.56521    -0.88589     1.94238
O     -2.26929    -3.89920    -0.07982
H     -1.62571    -3.29574    -0.47173
O     -1.95333    -3.69518     1.29791
H     -1.96776    -4.59096     1.64752
O      2.55683     1.97910    -2.08583
H      2.90719     1.08829    -1.88384
O      1.27085     1.62506    -2.61310
H      0.67758     1.83885    -1.86503
O     -0.80584    -1.52781    -1.06912
H     -0.39397    -1.36018    -1.93920
O     -1.70189    -0.41436    -0.96178
H     -2.33465    -0.75379    -0.28448
O      2.39874    -0.68344    -0.23509
H      2.61651     0.12611     0.26479
O      3.20718    -0.51267    -1.40279
H      2.73146    -1.07316    -2.04241
O      1.75478    -1.65430    -3.35513
H      1.90147    -1.74005    -4.30122
O      0.57635    -0.85839    -3.30247
H      0.93009     0.05092    -3.15217
