 32
-1213.3098229089949
O      2.72615     0.63482     2.18034
H      3.27957     1.00848     2.87336
O      2.22955     1.79861     1.52638
H      1.28360     1.80905     1.80296
O     -1.33845    -2.83500    -0.19191
H     -1.18676    -3.57588    -0.79154
O     -2.21222    -1.99400    -0.92774
H     -1.60327    -1.33860    -1.30635
O     -0.75015     0.60308    -1.33713
H      0.18775     0.87294    -1.25776
O     -1.38904     1.69584    -0.66715
H     -2.27795     1.30868    -0.47641
O     -0.43783     1.81119     1.81904
H     -0.79116     1.99080     0.92026
O     -0.83665     0.43764     1.97439
H     -0.21827    -0.03943     1.39219
O      1.80572     1.33674    -1.24402
H      2.23339     1.58696    -0.40596
O      2.90338     1.27832    -2.16359
H      2.79523     0.37034    -2.47667
O      0.89286    -1.84615    -1.88245
H      1.21145    -1.39209    -1.07644
O      1.37724    -1.01761    -2.94594
H      0.61694    -0.44530    -3.10767
O      0.78176    -1.94717     1.37308
H      0.04192    -2.26382     0.82873
O      1.14573    -0.79800     0.61018
H      1.88895    -0.42343     1.12974
O     -3.49293     0.69136     1.53415
H     -2.53644     0.62798     1.73301
O     -3.52283     0.39788     0.13482
H     -3.29891    -0.54315     0.09944
