 20
-758.2959076068025
O     -0.11267    -1.18854     0.58279
H     -0.73758    -0.69973     0.00288
O     -0.43318    -2.55137     0.29071
H      0.44524    -2.85536     0.01865
O      2.29123    -1.20178    -1.18819
H      1.45405    -0.87882    -0.83314
O      2.12991    -2.61326    -0.97559
H      1.97791    -2.91604    -1.87581
O     -0.78720     2.62771     1.03644
H      0.11188     2.29630     0.87604
O     -1.22716     2.81345    -0.31637
H     -1.71935     3.63606    -0.24210
O      1.71306     0.45602     1.67362
H      1.12062    -0.27438     1.41469
O      1.54476     1.30297     0.53042
H      2.45207     1.41138     0.22861
O     -1.82335     0.19653    -0.89884
H     -1.83993     1.14969    -0.68588
O     -3.19786    -0.17758    -0.76048
H     -3.13790    -0.85589    -0.08204
