 20
-758.3106292293853
O     -0.56575    -2.36317     1.07413
H      0.06592    -1.65596     1.31466
O      0.09150    -2.90572    -0.07266
H     -0.15148    -3.83411    -0.01495
O      1.04244    -0.23616     1.55209
H      0.69709     0.66665     1.40970
O      2.12653    -0.26037     0.61105
H      1.67180    -0.54383    -0.19987
O      1.31532     2.24102    -0.44217
H      2.04734     1.71438    -0.09176
O      0.46398     2.24289     0.71602
H     -0.41752     2.13433     0.30798
O      0.81866    -0.29446    -1.78250
H      0.72157     0.66418    -1.69948
O     -0.51036    -0.74010    -1.48004
H     -0.33037    -1.56814    -0.98788
O     -1.79176     1.37575    -0.48061
H     -1.47317     0.53335    -0.87099
O     -2.59525     0.90272     0.59904
H     -3.44219     1.29818     0.37557
