 28
-1061.641515301668
O      0.56353    -1.78351     0.46583
H      0.31621    -1.40198    -0.41313
O      1.60261    -2.69016     0.12331
H      2.26296    -2.07426    -0.22039
O      2.57900     0.73006    -1.22406
H      2.09227     0.98968    -0.42274
O      3.43834    -0.27925    -0.70704
H      4.30873     0.12235    -0.79020
O     -2.51633     0.12675    -0.15748
H     -2.54899    -0.72456     0.32644
O     -2.02386     1.00903     0.85179
H      1.11090    -0.34602    -2.12182
O     -2.16831    -2.21985     1.13602
H     -1.19977    -2.30966     1.12400
O     -2.56729    -3.25048     0.22889
H     -3.07408    -3.81908     0.81640
O      0.34391     3.79516     0.04027
H      0.50037     3.24686     0.82248
O     -0.80566     3.16617    -0.52882
H     -0.40634     2.51729    -1.12895
O     -0.47730     0.57265    -1.78582
H     -1.24253     0.29779    -1.23948
O      0.22596    -0.67760    -1.90869
H     -2.04808     1.85351     0.37489
O      0.64108     1.11031     1.07106
H     -0.32534     0.94617     1.10610
O      1.11183     0.51180     2.27512
H      1.20367    -0.40885     1.98573
