 24
-909.9728416345637
O     -1.37654    -1.19056    -1.80700
H     -1.21361    -0.26851    -2.05616
O     -2.02934    -1.03425    -0.54918
H     -1.29182    -1.14674     0.08235
O     -0.93734    -0.59631     2.27895
H     -1.41291    -1.33951     2.65829
O     -0.13942    -1.26164     1.30099
H      0.66217    -0.69387     1.29139
O      1.82542     0.53661     1.19465
H      1.46815     1.15449     0.51255
O      3.19408     0.41327     0.82668
H      3.62370     0.79961     1.59465
O     -3.12330     1.27652     0.36953
H     -2.89450     0.46557    -0.11830
O     -1.86455     1.60198     0.95956
H     -1.70212     0.84092     1.54098
O      2.60299    -1.76186    -1.32925
H      3.02320    -1.36653    -0.55637
O      1.39124    -1.00533    -1.33034
H      0.70032    -1.67952    -1.39015
O      0.14938     1.28500    -1.78261
H      0.79141     0.56087    -1.69499
O      0.33669     1.92252    -0.51587
H     -0.55731     1.87170    -0.11404
