 36
-1364.9762509366242
O      0.77324     2.23702     1.08325
H     -0.11117     2.26032     0.65651
O      1.30330     0.98411     0.64610
H      0.74578     0.36350     1.16486
O     -1.02771    -1.45432    -0.94876
H     -0.29513    -0.95071    -1.38004
O     -2.19442    -0.93484    -1.58438
H     -2.03379     0.02859    -1.54149
O     -0.47627    -0.40478     2.04956
H     -0.68893     0.13433     2.84315
O     -1.70890    -0.32210     1.31378
H     -1.53624    -0.93869     0.56214
O      1.82089    -2.29919    -0.44423
H      1.26293    -2.91751     0.07239
O      2.75626    -1.86337     0.53832
H      2.56803    -0.91608     0.55755
O      0.60672     1.71243     3.74907
H      0.63654     2.03746     2.82990
O     -0.79598     1.47336     3.89218
H     -0.90194     1.53954     4.84607
O     -1.74817     2.07480     0.11593
H     -1.93600     1.20978     0.53017
O     -1.71536     1.70893    -1.26683
H     -1.06226     2.33523    -1.64335
O      2.07406    -0.35217    -2.24441
H      2.06602    -1.16376    -1.69796
O      0.81094     0.18900    -1.83353
H      1.04459     0.70075    -1.02703
O     -0.06341     2.30516    -3.59225
H      0.42417     1.52052    -3.30008
O      0.16326     3.14050    -2.45521
H      0.24739     4.00963    -2.85777
O      0.30251    -4.10212     0.81307
H      0.46612    -5.04723     0.73486
O     -1.07377    -3.98341     0.47485
H     -1.01833    -3.40701    -0.30031
