 28
-1061.6359126871364
O     -0.95812    -0.70727    -2.30371
H     -1.54680    -0.52631    -1.55293
O     -0.85923    -2.13135    -2.23641
H     -0.88910    -2.37029    -3.16654
O      0.22672    -2.58080     1.92033
H      0.67935    -2.69178     1.05322
O     -1.13570    -2.61345     1.49032
H     -1.44780    -3.44336     1.86157
O      1.44814     2.71010     2.10224
H      1.76797     2.38466     1.24016
O      0.04802     2.46330     1.96107
H      2.07446    -1.28653    -0.91507
O      1.38043     0.28521    -0.41134
H      0.56545     0.18243     0.12152
O      1.64572     1.68497    -0.36429
H      0.88767     2.05743    -0.85164
O     -0.90736    -0.06022     0.90427
H     -1.07006    -0.99367     1.17539
O     -2.06058     0.21036     0.09053
H     -1.94566     1.16830    -0.03920
O      1.12012    -2.86318    -0.55983
H      0.43106    -2.60895    -1.20256
O      2.27939    -2.22172    -1.08660
H     -0.01723     1.50751     2.08653
O     -0.50274     2.97955    -1.30148
H     -0.54951     3.91505    -1.51902
O     -1.40880     2.87052    -0.21226
H     -0.80089     2.90231     0.56133
