 32
-1213.304471843422
O      3.21519    -1.29886     0.61126
H      3.52201    -1.21142    -0.30210
O      2.25458    -2.35296     0.45452
H      1.50662    -2.01971     0.96849
O     -2.05591    -2.28651    -0.29339
H     -1.49027    -1.93115    -0.99636
O     -3.06714    -1.28098    -0.15659
H     -2.63298    -0.65940     0.44687
O      2.42161     0.75563    -2.33822
H      2.56411     1.15798    -1.46401
O      2.94294    -0.56682    -2.15030
H      2.12363    -1.08054    -2.13813
O      0.20950    -0.80956    -1.43561
H      0.29119    -0.45696    -0.52767
O     -0.23877     0.35138    -2.14962
H      0.61752     0.74416    -2.42161
O      2.42041     1.50957     0.27966
H      2.64498     0.63786     0.64559
O      0.99454     1.41795     0.22017
H      0.68691     1.87868     1.01570
O     -1.92815     1.32262    -0.29140
H     -1.35235     1.06611    -1.05343
O     -3.14225     1.75583    -0.91032
H     -3.60245     0.91022    -0.98652
O     -1.72062     1.41630     2.94177
H     -1.50453     1.85662     3.76807
O     -1.00719     2.22083     2.00311
H     -1.50308     2.00296     1.18502
O     -0.63917    -0.49272     1.36662
H     -0.95291    -0.00829     2.14996
O     -0.46874    -1.84348     1.82175
H     -1.08973    -2.26893     1.19854
