 32
-1213.3074564010722
O      2.30949    -3.39179     0.59573
H      1.53721    -3.20425     1.15072
O      2.03029    -2.67030    -0.60037
H      1.06532    -2.82201    -0.73504
O     -1.27239    -3.01360     0.54567
H     -1.21718    -2.17091     1.01600
O     -0.63002    -2.71211    -0.69197
H     -1.10677    -1.91251    -1.01019
O     -0.48225     0.00307    -1.98970
H     -0.74435     0.90095    -2.28580
O     -1.63754    -0.34866    -1.22781
H     -1.60456     0.29062    -0.48069
O     -1.18827     2.55571    -2.33193
H     -0.52752     3.05823    -1.82984
O     -2.34811     2.76087    -1.52904
H     -3.03870     2.60739    -2.18055
O      0.78547     3.60634    -0.80331
H      0.99768     4.46852    -0.43750
O      0.86361     2.79612     0.36779
H      1.41971     2.04785     0.05156
O      1.80768    -0.31558     0.50692
H      2.10974    -1.18663     0.12885
O      1.76931     0.51545    -0.65488
H      1.00434     0.15972    -1.15333
O      0.79882    -1.85282     2.89120
H      1.45536    -1.29576     3.32461
O     -0.04634    -0.90736     2.24444
H      0.54063    -0.57502     1.52542
O     -1.73938     1.41468     2.20294
H     -1.39720     0.59569     2.58812
O     -1.29691     1.25629     0.85821
H     -0.59386     1.93334     0.77853
