 40
-1516.6455442336758
O      3.52498    -0.75907     0.23861
H      3.34706    -1.11168     1.13120
O      3.02710    -1.80667    -0.59802
H      2.34058    -1.34281    -1.12189
O     -0.56880    -0.32787     0.49246
H     -0.98446     0.50321     0.84648
O     -1.43914    -1.36313     0.95314
H     -2.21251    -1.17444     0.37178
O     -0.50864     3.00683     1.50343
H      0.32018     2.49451     1.60809
O     -1.49274     1.97208     1.48305
H     -2.21936     2.41288     0.99736
O      2.07785     1.49843     0.05974
H      2.74355     0.77818     0.03031
O      1.76284     1.57923     1.45508
H      1.45184     0.67984     1.64436
O     -3.12705     2.37117    -1.42814
H     -2.14398     2.40202    -1.38513
O     -3.45373     2.86659    -0.12854
H     -3.75757     3.75883    -0.32133
O     -0.47960     2.27882    -1.18632
H      0.10098     2.84453    -0.64887
O      0.20130     2.13691    -2.42493
H      0.62341     1.27461    -2.30142
O     -3.23016    -0.50624    -0.77043
H     -3.43622     0.33887    -1.20453
O     -3.02797    -1.42555    -1.84184
H     -2.07257    -1.36251    -1.97965
O      0.19220    -3.19170    -0.07500
H     -0.40102    -2.59739     0.42759
O      1.30845    -3.32545     0.80694
H      2.04340    -3.01821     0.24033
O      0.04260    -1.67738    -2.29892
H      0.12317    -2.42533    -1.67668
O      0.87830    -0.72190    -1.66434
H      0.35203    -0.49664    -0.85787
O      2.86066    -1.39534     2.75723
H      2.90405    -1.72405     3.66135
O      1.45416    -1.26300     2.54361
H      1.27286    -2.06134     2.00147
