 32
-1213.3081810237697
O      2.15467     1.06869     0.99227
H      2.27292     0.96076     0.02712
O      1.03849     1.96434     0.99571
H      0.29960     1.33630     1.11259
O      0.05656    -1.21154    -1.55761
H      0.51363    -2.04545    -1.35704
O     -0.37441    -1.41651    -2.91208
H     -0.99624    -0.67047    -2.95112
O     -1.79019     0.83320    -2.31740
H     -1.04515     1.38215    -1.99703
O     -2.37910     0.32566    -1.11468
H     -3.02016     1.01626    -0.87633
O     -0.90796     0.16839     1.09634
H     -1.36519    -0.00366     0.24051
O     -1.74176    -0.48847     2.04629
H     -1.06375    -1.04064     2.46245
O      0.53257     2.07231    -1.61855
H      0.61906     2.40711    -0.70698
O      1.51391     1.01988    -1.58116
H      0.95227     0.21266    -1.61989
O      2.65036    -2.57115    -0.08379
H      2.60331    -2.27475     0.84389
O      1.35935    -3.18756    -0.18317
H      1.58798    -4.10926    -0.33176
O      0.52185    -2.06174     2.42163
H      0.43299    -2.50876     1.56760
O      1.86177    -1.57551     2.33836
H      1.74833    -0.64594     2.07322
O     -2.91300     2.29363     0.81370
H     -2.51731     1.62358     1.38754
O     -1.74689     2.97239     0.33751
H     -1.75558     3.78818     0.84979
