 28
-1061.6436820036467
O     -0.86172    -1.42338     1.82426
H     -1.62166    -0.85222     2.06735
O     -0.02263    -0.43519     1.22034
H      0.78832    -0.95571     1.04878
O      1.96167    -2.07059     0.41626
H      1.68612    -2.16632    -0.51706
O      3.36336    -1.85447     0.29851
H      3.70440    -2.61360     0.78232
O     -2.79578     0.36595     2.07501
H     -2.48954     1.23908     1.78260
O     -3.79632     0.01893     1.12223
H     -0.69455     0.41687    -2.21163
O     -0.82743     2.39161     1.31821
H     -0.23606     1.66849     1.57321
O     -0.42470     2.62389    -0.03019
H     -0.95515     1.98592    -0.54722
O      0.78020    -0.51488    -2.45468
H      1.36003    -0.10484    -1.78108
O      0.56921    -1.82787    -1.90937
H     -0.34935    -1.72547    -1.60629
O     -1.56650    -0.61823    -0.90950
H     -1.00814    -0.46530    -0.11883
O     -1.45749     0.62105    -1.63187
H     -3.27256    -0.36220     0.40039
O      2.27515     2.04661    -0.99312
H      1.55056     2.43459    -0.48043
O      2.19055     0.68539    -0.55367
H      3.09155     0.49046    -0.25986
