 36
-1364.9734504194685
O      0.10046     2.07258     1.08480
H      0.86793     2.66357     0.92895
O      0.47890     1.39782     2.29205
H      1.16375     0.79596     1.95996
O     -1.32707    -0.78196     1.88800
H     -1.07506     0.07354     2.27251
O     -2.22576    -1.35017     2.85010
H     -3.07182    -1.22399     2.40256
O     -2.00993     1.09456    -0.30857
H     -1.29764     1.50703     0.21840
O     -1.26082     0.53711    -1.38926
H     -0.97914    -0.33645    -1.04221
O     -0.84872    -3.08818    -0.18023
H     -1.72357    -2.78820     0.10898
O     -0.39350    -1.90966    -0.84554
H     -0.03061    -2.25497    -1.67474
O      2.45709     3.17203     0.66393
H      3.02719     3.69420     1.23661
O      1.93454     4.15946    -0.23199
H      1.74274     3.58263    -0.98492
O     -4.14041    -0.88948     0.57736
H     -3.44516    -0.31684     0.21753
O     -3.76213    -2.15508     0.04931
H     -4.45867    -2.33701    -0.59235
O      0.84790     2.06448    -1.91349
H      0.00384     1.57257    -1.76902
O      1.81721     1.01792    -1.89044
H      1.84075     0.78123    -0.94708
O      1.75023    -1.52296    -2.76604
H      1.72522    -0.56347    -2.57049
O      2.59854    -1.99772    -1.72393
H      3.46074    -2.05364    -2.14731
O      2.05384    -0.64227     0.53709
H      2.20461    -1.35219    -0.11590
O      1.60111    -1.34002     1.68208
H      0.65267    -1.43050     1.50512
