 24
-909.9713196255549
O     -3.04791    -1.35885    -0.16849
H     -2.85113    -0.56940    -0.69413
O     -3.20793    -0.76705     1.12755
H     -4.03343    -1.15894     1.42663
O      1.99682    -1.70845    -1.25952
H      2.31476    -0.80627    -1.09763
O      0.76330    -1.71534    -0.52598
H      0.17044    -1.20307    -1.11210
O      1.73197     1.45986    -2.33226
H      2.24262     1.10326    -3.06593
O      2.49939     0.98877    -1.22042
H      1.96762     1.34523    -0.47872
O     -1.42273     0.91013    -0.86009
H     -0.99923     0.65551    -0.02530
O     -0.65021     0.19929    -1.82460
H      0.08985     0.80928    -2.00485
O     -0.75342    -0.12864     1.96920
H     -1.65466    -0.47629     1.80388
O     -0.04031    -1.31751     2.29487
H      0.41412    -1.49295     1.45502
O      1.05346     1.94471     0.78276
H      1.02669     2.84732     1.11799
O      1.57389     1.19953     1.89088
H      0.76443     0.73455     2.17239
