 28
-1061.642324411006
O      0.90643    -0.72252    -1.05477
H      1.25200     0.10459    -1.43063
O     -0.18733    -1.06396    -1.90542
H     -0.94213    -0.66474    -1.42583
O      0.06750    -0.66068     1.99728
H     -0.82362    -0.66862     1.58595
O      0.70103    -1.77781     1.37039
H      0.90598    -1.38576     0.50283
O      0.29523     2.39876     1.90571
H      0.43279     2.59274     2.83654
O      1.41013     1.55772     1.60616
H      3.85662     2.67264    -1.39869
O     -1.56159     2.28267    -0.01235
H     -0.89061     2.40807     0.68069
O     -0.72151     2.00417    -1.13014
H     -1.25263     2.33856    -1.85745
O     -2.32951    -0.19447    -0.53875
H     -2.23169     0.72979    -0.23646
O     -2.23734    -0.92095     0.68809
H     -2.05236    -1.82447     0.34987
O      2.24802     1.83999    -0.95610
H      1.99237     1.85069    -0.01358
O      3.66968     1.90208    -0.85608
H      1.02064     0.65783     1.75330
O     -0.77456    -3.67027    -1.22461
H     -0.52400    -2.80399    -1.59161
O     -1.26657    -3.30817     0.06973
H     -0.45486    -3.26098     0.59947
