 36
-1364.9750969718548
O      0.69908     2.05230    -0.00316
H     -0.01473     1.52529    -0.39762
O      1.08361     1.25721     1.12551
H      0.31807     1.39492     1.72735
O     -0.49538    -1.10547     0.96852
H      0.09544    -0.76613     0.24906
O     -1.40324    -1.93146     0.24091
H     -1.88872    -1.26370    -0.28697
O     -1.20340     1.72192     2.41036
H     -1.53703     2.55331     2.00987
O     -2.12290     0.76484     1.86941
H     -1.54066    -0.01615     1.72964
O      3.46750    -0.79357     0.04160
H      3.27967    -1.57204     0.59249
O      3.61899     0.22547     1.03319
H      2.73504     0.63352     1.01916
O     -0.36481     4.23833     1.13851
H      0.01837     3.51260     0.61088
O     -1.75679     3.91860     1.05470
H     -2.15750     4.77041     1.26035
O     -2.09926     1.27974    -0.78286
H     -2.29990     1.22357     0.17252
O     -2.59019     0.00692    -1.21497
H     -2.21604    -0.07156    -2.11842
O      1.13342    -0.66191    -1.10506
H      2.08811    -0.57842    -0.84594
O      1.14517    -1.88340    -1.86208
H      1.17002    -2.51770    -1.12613
O     -1.29344    -1.92665    -3.03095
H     -0.38477    -1.86038    -2.66877
O     -1.47569    -0.61193    -3.55555
H     -1.83642    -0.79986    -4.42610
O      2.35240    -2.93175     1.36982
H      2.70750    -3.80705     1.54282
O      1.28077    -3.24273     0.48261
H      0.52716    -2.83718     0.94162
