 40
-1516.6446197682849
O     -0.15033     1.71348     2.64244
H     -0.80193     2.27084     2.16110
O     -0.91483     0.52556     2.85728
H     -0.89696     0.11689     1.97526
O      1.56952    -1.47810    -0.63808
H      1.12734    -2.34402    -0.50540
O      1.35512    -1.20170    -2.03140
H      1.46373    -0.23510    -1.98964
O     -2.06434     2.67556    -2.37967
H     -1.79142     3.15058    -1.57060
O     -0.85724     1.95409    -2.63483
H     -1.18230     1.18340    -3.13675
O     -1.92410     0.17849    -0.48669
H     -1.84147    -0.35439    -1.30549
O     -0.92872    -0.46153     0.32182
H     -0.09174    -0.17873    -0.09607
O     -1.12457     3.52293    -0.00954
H     -0.23322     3.13028     0.09366
O     -1.88956     2.77651     0.93543
H     -2.15316     1.99673     0.42011
O      1.11755     1.27002    -1.07861
H      0.35486     1.64143    -1.57688
O      1.19786     2.18860     0.02025
H      1.71277     1.65384     0.66803
O      1.95886     0.10536     2.76389
H      1.24257     0.77418     2.84850
O      2.52567     0.45481     1.49999
H      2.41158    -0.36331     0.99027
O      0.10174    -3.57266     0.11677
H      0.19592    -3.51877     1.07947
O     -1.22876    -3.08933    -0.11433
H     -1.15370    -2.14454     0.11985
O      1.34603    -2.53028     2.60920
H      1.54834    -1.59213     2.81310
O      2.53609    -2.91695     1.91642
H      2.90057    -3.56285     2.53006
O     -1.26697    -0.45424    -3.80786
H     -1.81421    -0.94580    -4.42833
O     -1.26235    -1.31459    -2.67388
H     -0.30673    -1.51191    -2.58034
