 36
-1364.9769956611885
O      0.88473     2.26486     2.16052
H      0.36140     1.48307     2.42655
O      2.09195     1.66674     1.70580
H      1.92453     1.60189     0.74632
O      0.33228    -3.52790    -0.11017
H      0.68311    -3.12980    -0.92778
O     -1.03508    -3.13548    -0.15495
H     -1.09797    -2.49477     0.57036
O     -1.46344    -0.75635     1.70270
H     -2.08125    -0.01864     1.52668
O     -0.41099    -0.10233     2.42741
H      0.35498    -0.57617     2.04329
O      1.79783    -2.27816    -1.97273
H      2.47626    -2.78442    -2.42829
O      1.24966    -1.49202    -3.03029
H      0.29559    -1.63794    -2.88620
O     -2.85402     1.48349     0.98475
H     -2.31355     2.26001     1.22059
O     -2.83603     1.62898    -0.43926
H     -2.41884     0.79321    -0.72032
O     -0.82497     3.37711    -0.58387
H     -1.65929     2.96430    -0.86750
O     -1.10703     3.46761     0.81204
H     -0.26061     3.19901     1.21170
O      1.76610     0.98724    -0.83536
H      1.67771     0.02892    -0.72808
O      0.66606     1.29494    -1.68265
H      0.38458     2.16050    -1.33326
O     -1.38154    -0.41414    -1.33303
H     -0.60476     0.11914    -1.60971
O     -1.34512    -1.51025    -2.24323
H     -1.42936    -2.23784    -1.59748
O      2.73088    -1.02102     1.71815
H      2.63843    -0.06877     1.89446
O      1.50373    -1.22172     1.01294
H      1.46347    -2.18753     0.90405
