 36
-1364.9741741601824
O      1.49398     1.85716     3.43582
H      2.22427     2.08090     2.83299
O      0.44442     2.64850     2.86204
H     -0.14126     1.96775     2.50017
O     -1.23745    -3.10480    -0.91990
H     -1.94539    -2.99537    -1.56853
O     -0.58816    -1.84473    -1.09569
H     -0.91264    -1.32196    -0.31972
O      2.48661    -0.80397     1.93751
H      2.33153    -1.46419     1.24766
O      1.17280    -0.70666     2.49557
H      1.28529     0.05919     3.08844
O      0.56901     1.28485    -1.42514
H      0.67953     2.15515    -1.00355
O      1.36665     0.49984    -0.52116
H      1.70810    -0.21456    -1.08144
O     -1.86013     0.57150    -2.31037
H     -0.96371     0.80300    -2.00115
O     -2.66399     1.07071    -1.23569
H     -3.26328     0.31175    -1.12959
O      1.42297     3.16047     0.40345
H      0.92330     3.27719     1.23025
O      2.53398     2.39364     0.90726
H      2.30528     1.52257     0.53825
O     -3.97515    -1.24963    -1.58144
H     -4.82941    -1.27454    -2.02438
O     -3.11662    -1.80302    -2.58737
H     -2.53883    -1.03189    -2.73861
O      1.91044    -2.40358    -0.53208
H      0.96299    -2.33457    -0.81441
O      2.60566    -2.08792    -1.73720
H      3.00421    -2.93755    -1.94848
O     -1.13870     0.99849     0.99308
H     -1.68498     1.13536     0.19299
O     -1.13282    -0.43324     1.08488
H     -0.27416    -0.57715     1.53261
