 32
-1213.3068755783854
O      0.89595    -3.43356     1.10230
H      1.52436    -4.06894     0.74298
O     -0.13233    -3.46740     0.11952
H      0.02260    -2.63796    -0.36219
O     -0.35542    -0.82093     2.32418
H     -0.90644    -1.61276     2.41414
O     -1.33116     0.11668     1.82696
H     -0.80942     0.94521     1.87014
O     -0.86265    -1.32784    -3.05329
H     -0.84778    -0.38421    -3.26843
O     -0.87359    -1.27052    -1.63304
H     -1.76338    -1.57996    -1.39339
O      0.48689     2.07869     1.56830
H      1.04927     1.59542     0.93192
O     -0.12762     3.06022     0.72415
H     -0.67525     2.48810     0.14536
O      1.74487     0.54069    -0.17791
H      2.61030     0.89733    -0.42292
O      2.09559    -0.65769     0.52109
H      1.40076    -0.68602     1.19798
O     -1.03739     1.31504    -1.01676
H     -0.81343     0.36190    -1.00287
O     -0.45823     1.71384    -2.25610
H      0.38017     2.10213    -1.96063
O      3.05382     3.11880    -0.52769
H      3.55589     3.91285    -0.74167
O      1.80340     3.40373    -1.15727
H      1.21992     3.51365    -0.37704
O     -2.36060    -2.65517     1.42876
H     -1.69207    -3.16384     0.94283
O     -2.82789    -1.78145     0.38810
H     -2.59712    -0.92932     0.78297
