 36
-1364.9809454392032
O      0.46157     3.97311     0.36685
H     -0.13318     3.30141    -0.00821
O      0.95194     3.26089     1.50060
H      0.78919     3.88358     2.21433
O     -2.51579    -2.18206     1.38178
H     -2.05174    -1.50764     1.90089
O     -3.52813    -1.42248     0.72980
H     -3.35630    -1.62922    -0.19956
O      0.22426    -1.85512     0.19449
H      0.50613    -1.37550    -0.61443
O     -0.62205    -2.88018    -0.33561
H     -1.37006    -2.80348     0.29688
O      0.37175     0.13203    -2.77415
H     -0.28197    -0.59659    -2.88825
O      1.23000    -0.47154    -1.80447
H      1.71971     0.29206    -1.45047
O     -0.43198     0.66532     1.46240
H      0.00635     1.44897     1.82863
O     -0.43510    -0.24143     2.56362
H      0.52140    -0.48833     2.55628
O     -1.77599     0.86941    -0.79056
H     -1.31450     0.59978     0.03326
O     -0.93707     1.91578    -1.28246
H     -0.45940     1.42201    -1.98104
O      3.05260     1.59102     0.57688
H      2.55459     2.40639     0.75072
O      2.88984     1.47102    -0.82772
H      3.80156     1.49876    -1.13222
O     -1.42211    -1.81437    -2.63040
H     -1.15178    -2.39085    -1.88396
O     -2.62777    -1.24908    -2.11814
H     -2.29121    -0.41987    -1.71967
O      2.49627    -1.63737     1.58904
H      1.66004    -1.86845     1.14298
O      2.14674    -0.38771     2.17476
H      2.52807     0.24326     1.54368
