 28
-1061.6410775440065
O      0.31974    -1.44794    -3.03965
H      0.19648    -1.39257    -3.99287
O      1.66970    -1.00841    -2.89502
H      1.53737    -0.11164    -2.52344
O      0.27876    -0.68535     2.08135
H     -0.49979    -1.08800     2.48860
O      0.00349    -1.01678     0.70209
H      0.87495    -1.36529     0.39906
O     -0.24969     1.90630     1.93540
H      0.02848     0.98887     2.13543
O     -1.18248     2.12552     2.99051
H      0.83341     1.66382     0.17213
O     -2.01303    -0.19871    -1.56400
H     -1.18459    -0.64093    -1.79949
O     -1.53857     0.98692    -0.93029
H     -2.00578     0.95058    -0.06948
O     -2.79144     0.59974     1.45307
H     -2.33984     1.06130     2.17945
O     -2.56329    -0.77611     1.78637
H     -2.15113    -1.08626     0.96966
O      0.96732     1.33873    -1.69867
H      0.00317     1.26647    -1.49787
O      1.56815     1.39064    -0.39726
H     -1.28348     3.08025     2.94513
O      2.30605    -2.01270    -0.30174
H      2.26487    -2.12452    -1.26522
O      3.35447    -1.05323    -0.15006
H      2.85890    -0.22139    -0.20113
