 28
-1061.6451266553788
O      0.80606     0.77636    -2.56145
H      1.15152     1.21831    -1.75992
O      1.84897    -0.16326    -2.84213
H      1.42845    -0.99117    -2.56010
O      1.90865    -0.78637     1.05903
H      1.85399    -1.52053     0.40876
O      1.24007    -1.33616     2.18779
H      0.36666    -0.92820     2.11004
O     -0.12282     1.71652     2.79559
H      0.51373     1.37717     3.43443
O     -0.97350     0.58616     2.61021
H     -0.68703     0.07023    -2.21395
O      1.62973    -2.78402    -0.67849
H      1.34538    -3.68326    -0.48540
O      0.68946    -2.35491    -1.66152
H      0.04050    -1.84482    -1.12622
O     -2.69691     1.57903     0.84999
H     -3.33631     2.30022     0.82613
O     -3.44717     0.46521     0.35934
H     -2.94634     0.26541    -0.44455
O     -0.90023    -0.63597    -0.49487
H     -0.53416     0.24522    -0.25246
O     -1.45985    -0.35894    -1.77496
H     -1.68078     0.97528     2.05317
O      0.22111     1.67308     0.18129
H      0.22817     1.86396     1.14331
O      1.61388     1.57324    -0.12408
H      1.82557     0.70903     0.28705
