 40
-1516.651149163413
O      3.74671    -1.05513     0.50646
H      4.59376    -0.76063     0.15860
O      3.27890    -1.94303    -0.50332
H      2.72233    -1.33687    -1.05014
O     -1.70895    -0.66291     0.79776
H     -1.50623     0.12075     1.34861
O     -2.63868    -0.16026    -0.15379
H     -2.13360    -0.22681    -0.97852
O     -0.84689     1.62130     2.07421
H      0.08671     1.40877     2.28723
O     -0.71737     2.81174     1.28730
H     -1.64345     2.91618     0.97873
O      1.48530     0.13860     1.19344
H      2.37335    -0.24253     1.04619
O      1.54706     0.51753     2.56926
H      1.29183    -0.33716     2.97068
O     -2.80343     2.68567    -1.41782
H     -1.84432     2.85900    -1.44704
O     -3.01249     2.45695    -0.01917
H     -3.03341     1.47863     0.00641
O      0.21215     1.66626    -0.93324
H      0.00923     2.09840    -0.06660
O     -0.15012     2.65235    -1.90033
H     -0.25624     2.05680    -2.66731
O     -2.14873     0.30069    -3.03882
H     -2.51800     1.16194    -2.79574
O     -0.85961     0.66847    -3.52889
H     -0.33077    -0.09886    -3.23329
O      0.20691    -2.75370    -0.07681
H     -0.26829    -2.12858     0.49772
O      1.23129    -3.24160     0.78135
H      2.03451    -3.00602     0.28166
O      0.53914    -1.20061    -2.24008
H      0.41606    -1.79926    -1.47368
O      1.62303    -0.37525    -1.82449
H      1.13364     0.38378    -1.42365
O     -0.51074    -2.10652     3.24278
H     -0.62046    -2.56600     4.07991
O      0.91116    -2.02804     3.15484
H      1.07480    -2.54561     2.33802
