 36
-1364.9703626330345
O      1.39335     0.88566    -0.25633
H      0.62386     0.28918    -0.28025
O      1.92119     0.75722    -1.57955
H      2.48906    -0.03779    -1.51173
O     -0.96673     2.05322     1.10932
H     -1.57474     1.37490     0.73569
O     -0.75625     2.91124    -0.01389
H      0.10433     2.58406    -0.31610
O     -1.84237     1.10220     3.90304
H     -2.39364     1.19201     4.68471
O     -1.29130     2.41512     3.75454
H     -1.10528     2.39755     2.79565
O     -0.29854     0.79035    -3.17550
H      0.53094     0.80997    -2.65969
O     -1.26816     0.66188    -2.12681
H     -1.80395     1.45635    -2.23135
O     -0.17773    -2.05449    -3.81945
H     -0.34566    -1.11372    -3.96749
O      0.79381    -1.95141    -2.77156
H      1.54980    -2.45720    -3.10069
O     -2.58477     0.05740     0.49714
H     -2.06283    -0.73112     0.27563
O     -3.29890    -0.35825     1.65319
H     -2.93403     0.24406     2.31154
O      1.10094     0.23421     2.71586
H      1.15950     0.72391     1.88124
O     -0.14025    -0.44996     2.54651
H     -0.71603     0.05311     3.15928
O      3.59879    -1.34803    -1.46145
H      4.44750    -1.34565    -1.00547
O      2.99653    -2.55529    -1.00350
H      2.30245    -2.20903    -0.40949
O      0.85235    -1.79625     0.48939
H      0.49705    -1.44563     1.33880
O     -0.28977    -1.63480    -0.36927
H      0.09962    -1.80093    -1.25670
