 40
-1516.6444959966427
O      3.50808     1.31426    -1.51344
H      4.37128     1.73717    -1.50099
O      3.65917     0.36581    -2.57186
H      2.71692     0.16031    -2.73470
O      1.18889     1.78030     2.24988
H      1.75077     1.15671     1.73778
O      1.05193     1.12238     3.50750
H      0.09448     0.99204     3.56284
O     -1.83097     0.32710     3.17402
H     -1.68472     0.58400     2.24371
O     -2.05185    -1.08563     3.03972
H     -2.84436    -1.12087     2.47221
O     -3.51579    -1.03094     0.77887
H     -2.90581    -0.38322     0.39386
O     -3.25266    -2.19613     0.00281
H     -2.64765    -2.69716     0.57472
O      0.02541    -2.14787     1.71117
H     -0.67906    -1.77671     2.29083
O     -0.71822    -3.08777     0.92378
H     -0.47653    -2.81402     0.01626
O     -1.50714    -1.37409    -1.89830
H     -2.23044    -1.78776    -1.38975
O     -0.41206    -2.25171    -1.59907
H      0.33404    -1.68940    -1.86026
O      1.14542     3.21163    -1.40258
H      1.87580     2.75043    -1.83188
O      0.09482     2.26381    -1.61615
H     -0.49853     2.44016    -0.85492
O     -1.17672     0.79064     0.67758
H     -0.27623     0.45815     0.43126
O     -0.99754     2.18560     0.84725
H     -0.20303     2.19813     1.43213
O      1.14636    -0.34505     0.16924
H      0.91088    -1.05568     0.81764
O      2.42093     0.10270     0.61502
H      2.76675     0.45651    -0.22827
O      0.37089     0.08535    -3.99290
H     -0.46591    -0.35928    -3.80425
O      0.99295     0.02744    -2.71562
H      0.58972     0.81062    -2.26689
