 24
-909.9783016618111
O     -2.65430     0.48777     0.56382
H     -2.58635     0.99007     1.39281
O     -1.69045     1.21097    -0.21648
H     -1.35188     0.50755    -0.80741
O      1.73484     0.52790     0.80145
H      1.47454     1.36746     1.20835
O      1.32633     0.74666    -0.55318
H      2.03449     0.28935    -1.04972
O      3.05605    -0.75455    -1.94048
H      3.87824    -0.57053    -2.40241
O      2.11917    -0.78621    -3.01919
H      1.43442    -1.32561    -2.60542
O     -1.08479    -0.79220    -1.84672
H     -1.79677    -1.34572    -2.18359
O     -0.11830    -1.75546    -1.42260
H     -0.27143    -1.74685    -0.45370
O     -0.98449    -1.54962     1.13693
H     -1.66125    -0.85893     1.00511
O     -0.10628    -0.91170     2.06263
H      0.60021    -0.56865     1.47886
O     -1.17880     1.50683     2.62541
H     -0.75522     0.62924     2.62310
O     -0.28855     2.25061     1.78235
H     -0.69200     2.04357     0.91928
