 40
-1516.6421454011668
O      3.69905     0.38875    -0.51533
H      4.42109     1.00665    -0.66308
O      2.73856     0.84987    -1.45990
H      2.11090     1.35640    -0.88737
O     -1.32275    -2.41126    -0.55881
H     -0.67412    -3.12511    -0.65159
O     -1.12244    -2.05955     0.80357
H     -1.61786    -1.20623     0.84422
O     -2.35427     0.23772     0.81866
H     -2.85246     0.59910     0.05780
O     -1.59052     1.36530     1.25590
H     -1.35796     1.10409     2.17795
O      1.00833     2.07628     0.12650
H      0.03803     1.97818     0.15229
O      1.39303     1.77154     1.46027
H      1.62804     0.82419     1.38449
O     -3.90827     0.90377    -1.30058
H     -4.86010     0.79609    -1.39478
O     -3.40879     0.27689    -2.48178
H     -2.81633     0.97449    -2.79853
O     -1.21972     2.70442    -1.49642
H     -0.66053     3.45598    -1.71628
O     -0.92822     1.80164    -2.55847
H     -0.52953     1.04591    -2.07604
O      1.02584    -0.98547    -2.30319
H      1.80632    -0.41542    -2.13755
O      0.12835    -0.34365    -1.38621
H     -0.47421    -1.07089    -1.09762
O      0.94592    -1.46327     2.43826
H      0.22692    -1.80028     1.86779
O      1.79708    -0.85604     1.46538
H      1.96749    -1.58351     0.83766
O      1.25682    -3.39176    -1.17943
H      1.29781    -2.53869    -1.66528
O      2.03216    -3.09084    -0.02620
H      2.76812    -3.70364    -0.10374
O      0.29244     1.62108     3.93188
H      0.69429     1.83431     3.07044
O     -0.55132     0.52901     3.56978
H      0.08596    -0.18551     3.36519
