 36
-1364.9755450928192
O      2.22260     1.69717     1.42935
H      2.70155     0.97272     0.99513
O      0.90423     1.16152     1.25857
H      0.32133     1.92644     1.42619
O     -0.97657    -2.10648    -1.67380
H     -0.62070    -2.45444    -0.83050
O     -2.34092    -1.89044    -1.31591
H     -2.51354    -1.06950    -1.79482
O      2.09616    -1.16136     2.83837
H      2.22683    -0.39290     3.40304
O      0.69465    -1.10026     2.57369
H      0.62045    -0.24083     2.09324
O      3.37256    -0.81652    -1.28808
H      2.75337    -0.64014    -2.01261
O      2.47699    -0.60923    -0.20082
H      2.19078    -1.51565     0.02093
O     -1.69522    -0.35144     0.89598
H     -2.17542    -1.11448     0.53130
O     -2.59830     0.73473     0.63195
H     -2.50047     0.82535    -0.34473
O     -1.19283     3.63680     0.29676
H     -1.70502     4.42427     0.50339
O     -1.26606     2.91232     1.52284
H     -1.91484     2.20838     1.30574
O      0.98677    -0.40123    -2.49591
H      0.31970    -1.07047    -2.24543
O      0.52951     0.75510    -1.78736
H      0.92300     0.64118    -0.89330
O     -2.21968     2.34507    -2.17295
H     -1.69046     2.70614    -1.44847
O     -2.06934     0.94846    -1.95940
H     -1.08866     0.83297    -2.02914
O      1.43826    -2.99309     0.43638
H      1.75517    -3.57204     1.13830
O      0.03765    -2.89820     0.71054
H      0.02549    -2.25947     1.45828
