 36
-1364.9694156403227
O      2.01514     2.37708    -0.06542
H      1.88989     2.20244    -1.01217
O      2.91991     1.34070     0.30965
H      2.37969     0.77650     0.89252
O      0.62128    -3.85323     2.13283
H      1.07555    -4.64634     2.42722
O     -0.18743    -3.52281     3.26943
H     -0.70371    -2.78965     2.87644
O     -0.40339     2.26534     0.99278
H      0.55515     2.28475     0.74760
O     -0.78671     0.91330     0.75648
H     -0.32890     0.66510    -0.07899
O     -0.34747    -3.47361    -0.74655
H     -0.27979    -3.75197     0.17616
O     -1.40611    -2.51566    -0.65217
H     -1.19224    -1.93247    -1.40376
O     -0.05797     1.87951    -3.27315
H     -0.62225     2.31714    -2.59953
O      1.24838     2.29582    -2.86849
H      1.35562     3.13070    -3.33729
O      1.52897    -1.65466     0.90640
H      1.28300    -2.37971     1.51306
O      1.51380    -0.51234     1.77256
H      0.56266    -0.31302     1.81196
O     -1.46026     3.11412    -1.32044
H     -1.19540     2.87841    -0.39561
O     -1.06116     4.48462    -1.42036
H     -1.91717     4.91471    -1.49903
O     -1.40546    -1.62022     1.83987
H     -1.50996    -1.89290     0.89572
O     -2.63655    -0.95570     2.10690
H     -2.36398    -0.05015     1.90984
O      0.51480    -0.09088    -1.30995
H      0.93806    -0.88077    -0.92648
O     -0.32598    -0.65133    -2.33309
H     -0.22329     0.06053    -2.99044
