 20
-758.3156524544531
O      0.69481    -1.47829    -0.69987
H      1.07374    -1.18623     0.15281
O     -0.54561    -2.05644    -0.26626
H     -1.10325    -1.77662    -1.01317
O      1.69287    -0.86788     1.68464
H      1.77244    -1.47283     2.43044
O      1.24598     0.34533     2.29224
H      0.27934     0.27051     2.13818
O      1.70269     1.54717    -0.29729
H      1.83512     1.60201     0.65722
O      0.37888     2.08461    -0.40565
H      0.19932     1.89406    -1.33771
O     -0.36625     0.25583    -2.42495
H      0.25589    -0.33258    -1.95794
O     -1.60392    -0.37460    -2.06588
H     -1.92692     0.20936    -1.36470
O     -1.28734    -0.18118     1.53485
H     -1.10120    -0.95627     0.97069
O     -1.72784     0.76990     0.56106
H     -0.90246     1.25343     0.36716
