 32
-1213.3107859979002
O      0.26887    -1.91236     3.32797
H      0.46223    -1.83871     4.26548
O      1.06690    -0.86176     2.79482
H      1.40759    -1.29108     1.98001
O     -0.89945     0.36166    -1.13679
H     -0.62312     0.60255    -0.22101
O     -2.32618     0.28624    -1.05165
H     -2.51035     1.23839    -0.94099
O     -0.14216     1.07770     1.33080
H      0.23884     0.48730     2.01268
O     -1.52281     1.17266     1.70115
H     -1.78829     0.22267     1.71622
O     -0.71126     3.10424    -1.28046
H     -0.74544     2.39295    -1.93024
O     -1.97674     2.92734    -0.63859
H     -1.70127     2.74977     0.27310
O      2.01731     1.61602    -2.26886
H      1.67590     0.76498    -2.58150
O      1.83280     1.49844    -0.86193
H      1.17102     2.18831    -0.68121
O      1.69181    -1.72928     0.36609
H      1.00937    -1.99607    -0.28690
O      2.63507    -1.03090    -0.44571
H      2.31898    -0.10800    -0.40258
O      1.36609    -1.34418    -2.76442
H      2.11001    -1.40176    -2.13772
O      0.33786    -1.85843    -1.91001
H     -0.21483    -1.06379    -1.76537
O     -1.91575    -1.43110     1.82053
H     -1.20944    -1.78263     2.38956
O     -1.51044    -1.94513     0.54669
H     -1.94510    -1.31635    -0.05143
