 40
-1516.6392793232596
O      3.73354     0.47077    -1.84725
H      4.48028     0.05668    -2.28793
O      2.71327    -0.48317    -2.12180
H      2.00247     0.08781    -2.50282
O      0.19885     1.38388     0.99852
H      1.11690     1.01967     0.93051
O      0.25156     2.15032     2.20136
H     -0.63356     1.96394     2.54471
O     -2.37111     0.95034     3.15283
H     -2.48493     0.57737     2.25645
O     -1.69193    -0.12134     3.81062
H     -2.38778    -0.53534     4.33161
O     -2.85167    -1.91209    -1.75842
H     -3.53438    -2.58898    -1.75897
O     -2.07703    -2.34115    -0.63609
H     -2.11000    -1.53910    -0.06224
O      0.40489    -1.14695     2.44627
H     -0.37321    -0.82445     2.93596
O     -0.16023    -2.22058     1.68771
H      0.44155    -2.24684     0.91985
O      0.35452    -2.37645    -1.72786
H     -0.48365    -2.61048    -1.27305
O      1.23803    -2.20738    -0.61175
H      1.91561    -1.63970    -1.01902
O      0.11720     2.96742    -1.22239
H      0.01906     2.58860    -0.32787
O     -1.13096     3.63126    -1.41062
H     -0.82771     4.53519    -1.52535
O     -1.94849    -0.02940     0.65753
H     -1.01722     0.28786     0.76062
O     -2.46508     0.97894    -0.21054
H     -2.02037     0.75338    -1.04433
O      2.91170    -0.75567     1.54439
H      2.02745    -0.88891     1.94133
O      2.60713     0.34387     0.67393
H      3.23792     0.22352    -0.05653
O     -0.55659     0.12664    -2.39335
H     -0.19363    -0.77372    -2.28541
O      0.57461     0.87576    -2.84759
H      0.41267     1.72535    -2.38797
