 16
-606.6386110452374
O     -1.88546    -0.01559     1.46858
H     -2.01858     0.43300     0.62076
O     -0.98839     0.89025     2.12246
H     -0.17922     0.36170     2.13345
O     -1.03221     1.37803    -0.93848
H     -0.59886     0.57385    -1.27924
O      0.06414     2.01300    -0.25666
H     -0.34107     2.14847     0.61109
O      1.33617    -0.37963     0.79940
H      1.26077     0.44932     0.29792
O      2.62178    -0.85935     0.40258
H      2.39434    -1.54176    -0.23849
O     -0.54728    -1.79962    -0.91452
H     -0.11165    -1.50752    -0.10003
O      0.08848    -0.90377    -1.83764
H     -0.13953    -1.30299    -2.68439
