 32
-1213.3073826084778
O      1.28920     1.07810     0.47655
H      1.14154     0.20748     0.05912
O      2.62528     1.39328     0.10837
H      2.49227     1.68725    -0.80412
O      0.17664    -2.50487     1.63509
H      0.67416    -1.96029     2.26081
O      0.02328    -1.54840     0.58806
H     -0.95439    -1.49743     0.47588
O     -1.09165     1.65485    -1.35447
H     -0.21292     1.83579    -1.72182
O     -1.44515     0.49360    -2.12775
H     -2.27260     0.23851    -1.69429
O     -1.85569     0.68770     2.02535
H     -1.07281     0.47272     2.57833
O     -1.60429     2.03047     1.64110
H     -1.34350     1.91297     0.71370
O      2.19447    -1.12720    -1.45850
H      3.05498    -1.55742    -1.40629
O      1.29556    -2.23327    -1.64189
H      0.81001    -2.18171    -0.79135
O      0.99421     0.89455    -3.96319
H      0.07678     0.63095    -3.80512
O      1.43796     1.12477    -2.62376
H      1.65970     0.21682    -2.32317
O      1.39949    -0.13046     2.87508
H      1.33144     0.43019     2.07212
O      0.24604     0.25516     3.62495
H      0.58170     0.93175     4.22298
O     -3.13644    -0.33484    -0.02521
H     -2.74474     0.12722     0.75537
O     -2.59601    -1.64436     0.17929
H     -3.24776    -2.06575     0.75022
