 40
-1516.641702976344
O     -0.56696     2.10024    -2.49577
H     -0.86692     2.34466    -1.60701
O     -1.45674     1.04226    -2.82816
H     -0.91702     0.24852    -2.63099
O      0.35835    -3.04100     0.84440
H     -0.09778    -2.40921     0.24752
O     -0.31756    -2.68961     2.05924
H     -0.06926    -3.41998     2.63229
O     -1.66166     2.18742     1.63759
H     -1.02970     1.44787     1.68249
O     -1.60429     2.57759     0.26494
H     -2.47155     2.26274    -0.04887
O     -3.13591    -0.27455    -0.49080
H     -3.47555    -0.19532     0.42433
O     -3.43152     1.02246    -1.02415
H     -2.88022     0.99891    -1.82975
O     -3.78053    -0.07199     2.11694
H     -4.39298    -0.48392     2.73207
O     -4.10964     1.31692     2.27586
H     -3.21801     1.69830     2.14445
O      2.93759     0.58486    -1.84152
H      3.51917     0.85669    -1.09785
O      1.67299     0.92775    -1.25785
H      1.19437     1.34055    -1.99367
O      5.13136     0.05468     0.62866
H      4.73647    -0.75429     0.27234
O      4.05075     0.97220     0.53001
H      3.40844     0.66054     1.18772
O     -0.65742    -1.13931    -0.61489
H     -1.58680    -0.78634    -0.65032
O     -0.27069    -1.18991    -1.99838
H      0.62007    -1.56421    -1.90066
O     -0.00660     0.01846     1.96479
H     -0.08488    -0.94253     2.11697
O      1.36916     0.15246     1.62635
H      1.30595     0.25993     0.66376
O      3.01094    -2.01342    -0.01873
H      2.25534    -2.35899     0.48048
O      2.49162    -2.01710    -1.35691
H      2.76185    -1.12614    -1.65872
