 36
-1364.9767490366362
O      1.64062     1.10766     0.02195
H      1.92760     0.42637    -0.62518
O      1.50778     0.34370     1.21739
H      0.94965     0.91662     1.76582
O     -0.95443    -1.44116    -1.08433
H     -0.05011    -1.57637    -1.43297
O     -1.49563    -0.47866    -2.00061
H     -2.21883    -0.12552    -1.45946
O     -0.67814     0.95510     3.07583
H     -1.02528     0.10142     2.75221
O     -1.83173     1.79943     3.06508
H     -1.49152     2.53435     2.53977
O     -1.08829    -1.37726     1.86255
H     -1.33372    -1.07728     0.96786
O      0.20561    -1.92648     1.64833
H      0.74136    -1.13106     1.44839
O     -0.51868     2.69337    -0.02729
H      0.33549     2.24959    -0.21920
O     -0.19488     3.43995     1.14539
H     -0.34105     4.33514     0.83162
O     -3.52501     1.38294     0.83821
H     -3.36379     1.27922     1.78665
O     -2.36678     0.74638     0.31925
H     -1.74432     1.49303     0.20531
O      2.29894    -0.62544    -1.92530
H      1.92734    -0.23315    -2.74011
O      1.57225    -1.86073    -1.87881
H      2.09558    -2.39016    -1.24248
O      0.32813     1.33258    -2.69849
H     -0.34757     0.64641    -2.50877
O      0.99446     0.74182    -3.81298
H      1.26334     1.52276    -4.30364
O      2.60331    -3.28706     0.12833
H      3.20475    -4.01863     0.29616
O      1.33418    -3.94131     0.13861
H      0.84397    -3.33392     0.71926
