 20
-758.300476941266
O      0.75155    -1.02836     2.24207
H      0.49514    -1.74863     2.82391
O      0.25853    -1.50318     0.98663
H     -0.48038    -0.87428     0.81634
O      1.65201    -1.82803    -2.00095
H      2.50863    -1.91346    -2.42826
O      1.90515    -0.72736    -1.12257
H      1.46066    -1.04581    -0.32011
O     -0.32441     1.35556     3.53516
H      0.08034     0.73758     2.90943
O     -1.31319     1.97991     2.71062
H     -0.95262     2.86644     2.60145
O     -0.50830     1.13507    -0.20245
H     -0.59342     0.71861    -1.07629
O     -1.50750     0.42376     0.53406
H     -1.59491     1.01912     1.30315
O     -0.55943    -0.15333    -2.62701
H      0.30402    -0.60005    -2.64120
O     -0.57466     0.54745    -3.87312
H     -1.31533     0.11749    -4.31035
