 32
-1213.3095870519876
O      2.55940     1.66310     0.93866
H      2.90764     1.76266     0.04593
O      1.32151     1.05389     0.56346
H      1.29493     0.26339     1.15281
O     -0.19965    -1.32038    -0.69449
H      0.61112    -1.84304    -0.86831
O     -0.11772    -0.30441    -1.70401
H     -0.67911     0.41634    -1.33025
O     -1.15313     1.97129     0.57017
H     -0.19102     1.76542     0.54072
O     -1.50623     1.78791    -0.80581
H     -2.47949     1.71519    -0.74454
O     -1.93338    -0.27932     1.85265
H     -1.73405     0.61794     1.52195
O     -2.45824    -0.88266     0.66147
H     -1.63453    -1.08725     0.17914
O      2.46351     0.10924    -1.97700
H      1.47861     0.08724    -1.95978
O      2.69889     1.50657    -1.81348
H      3.31579     1.66734    -2.53220
O      3.05676    -1.92595    -0.31551
H      2.99700    -1.10093    -0.83306
O      2.08433    -2.69748    -1.02096
H      2.31076    -3.59371    -0.75771
O      0.95273    -0.96271     2.20375
H     -0.01107    -1.06384     2.21661
O      1.38649    -2.27197     1.81948
H      2.06454    -2.04880     1.16264
O     -4.11196     1.01459    -0.50242
H     -3.84222     0.25042     0.03881
O     -4.95666     1.73330     0.39081
H     -5.79815     1.67297    -0.06871
