 36
-1364.9791471122078
O      1.33389     0.57578     0.43463
H      0.49276     0.93679     0.09340
O      1.81709     1.60432     1.28435
H      1.12933     1.57370     1.98281
O     -0.91019    -1.48757    -0.70449
H     -0.11796    -1.51880    -1.28311
O     -1.23728    -0.10123    -0.84387
H     -1.95156     0.03721    -0.18426
O     -0.37114     0.32330     3.62603
H     -0.42032    -0.44251     3.02284
O     -0.43764     1.42545     2.70965
H     -1.39034     1.59530     2.63550
O     -0.34425    -1.80302     1.88972
H     -0.58581    -1.75673     0.93951
O      1.07241    -1.65010     1.85063
H      1.19555    -0.79343     1.38395
O     -0.71381     2.63854    -0.11635
H     -0.08681     3.35370     0.03472
O     -1.27495     2.95626    -1.39204
H     -0.69311     2.43875    -1.99321
O     -3.18876     0.57211     0.86459
H     -4.13843     0.60956     0.71486
O     -2.90823     1.87595     1.37169
H     -2.34240     2.23396     0.66332
O      2.20554    -0.43291    -2.17951
H      2.23240    -0.08638    -1.27514
O      1.39291    -1.60297    -2.02337
H      1.99074    -2.24386    -1.57857
O     -0.78915     0.62978    -3.35355
H     -1.09406     0.27455    -2.49694
O      0.32142     1.40524    -2.90407
H      1.04460     0.74774    -2.88816
O      2.67058    -3.30615    -0.43732
H      3.02782    -4.19445    -0.52460
O      1.35339    -3.57257     0.05362
H      1.32820    -2.97909     0.83603
