 24
-909.9750705531072
O     -1.80260    -1.30312    -0.01364
H     -2.12391    -0.58496    -0.58983
O     -1.87318    -0.70396     1.28197
H     -1.15476    -1.18501     1.73192
O      0.71283    -1.40592    -0.87962
H     -0.12774    -1.53845    -0.39147
O      0.22327    -1.14009    -2.19291
H     -0.16531    -0.26170    -2.07557
O      2.82235     0.23009    -1.32238
H      2.09009    -0.41646    -1.32855
O      2.73013     0.77337    -0.00340
H      2.71346    -0.00781     0.57201
O     -2.29142     1.95061    -1.10658
H     -1.35857     2.04269    -0.84527
O     -2.22677     0.68122    -1.75790
H     -2.65528     0.85124    -2.60211
O      1.35864    -0.65742     2.14166
H      0.81523     0.12643     1.91072
O      0.35401    -1.61480     2.45404
H      0.49889    -1.75499     3.39551
O      0.21734     1.56342    -0.13501
H      1.18521     1.35668    -0.12512
O     -0.13417     1.36901     1.24507
H     -0.95114     0.84580     1.15838
