 24
-909.9755355420002
O     -3.25613    -1.00477    -0.39765
H     -2.32889    -1.14437    -0.65770
O     -3.09559    -0.88821     1.02074
H     -3.94517    -1.21190     1.33473
O      1.86408     1.41508    -0.80063
H      1.10130     0.94585    -1.21398
O      1.22760     2.63405    -0.39989
H      1.64608     3.27409    -0.98483
O      2.49752    -1.57815    -0.49175
H      1.93922    -1.38296     0.29127
O      1.59344    -2.39693    -1.24438
H      2.18924    -2.81130    -1.87406
O     -0.66444    -0.99805    -1.18891
H      0.22240    -1.40336    -1.29400
O     -0.44564     0.35091    -1.61292
H     -1.01082     0.81122    -0.96140
O      2.05364     0.20277     1.90533
H      2.29651     0.66927     1.09174
O      0.96801    -0.60413     1.44136
H      0.21167     0.00966     1.51721
O     -0.80377     1.47048     1.47579
H     -0.18123     2.06398     1.03520
O     -1.79825     1.35529     0.45055
H     -2.37389     0.64712     0.80343
