 32
-1213.311993322653
O      3.01031     0.49885     1.33064
H      2.47955     1.17415     1.77139
O      2.10807    -0.59509     1.37047
H      1.70472    -0.56350     0.47717
O     -0.66558    -2.99240     0.06513
H     -0.00460    -3.09299     0.77639
O     -1.67438    -2.28915     0.81426
H     -2.03740    -1.68571     0.13267
O     -0.42467     3.13251    -0.79985
H      0.47619     2.94508    -1.10642
O     -1.14736     2.52035    -1.87976
H     -1.76009     1.93305    -1.38019
O      0.09488     1.60104     1.59637
H     -0.27616     2.18703     0.91793
O     -0.94616     0.62060     1.73344
H     -0.47316    -0.10173     2.17436
O      1.68383     2.00914    -2.12912
H      2.42623     2.38370    -2.61033
O      0.93327     1.40987    -3.19492
H      0.04507     1.70922    -2.92983
O      1.04596    -0.52205    -1.08281
H      1.47808    -0.00948    -1.78609
O      0.01571    -1.20019    -1.79506
H     -0.09977    -1.99242    -1.22813
O      0.74632    -2.68713     2.29180
H      1.40736    -1.99842     2.09291
O     -0.17548    -1.93666     3.09249
H     -1.00445    -2.24471     2.70263
O     -2.48619     0.79213    -0.40874
H     -1.98014     0.63900     0.41979
O     -2.45390    -0.49079    -1.01889
H     -1.61028    -0.47522    -1.50865
