 32
-1213.3081390193197
O      2.19874    -0.00649    -2.32096
H      1.77134    -0.78708    -2.69775
O      1.62796     0.00852    -1.01825
H      0.72558     0.38526    -1.16999
O      1.86441    -0.83397     1.47310
H      2.06208    -0.40882     0.61402
O      0.88785     0.07100     2.00320
H      0.05464    -0.37793     1.74712
O     -0.92904    -1.91924    -1.69496
H     -0.12743    -2.19501    -1.21239
O     -0.40618    -1.43183    -2.92917
H     -0.64181    -0.49818    -2.85811
O      0.66908     3.42675     1.65703
H      1.40877     4.00568     1.87089
O      1.29748     2.42636     0.84968
H      1.15715     1.61975     1.40043
O      0.87728    -2.88416     0.02532
H      1.28745    -2.33116     0.72102
O      0.00215    -3.71626     0.78065
H     -0.11855    -4.45169     0.17476
O     -0.74644     1.13101    -1.30892
H     -1.19602     1.47339    -0.49021
O     -0.14960     2.31630    -1.81771
H      0.38695     2.59356    -1.05912
O     -1.63553     2.26677     0.86765
H     -0.94961     2.82659     1.27490
O     -1.99169     1.42408     1.97119
H     -2.22755     0.60650     1.50150
O     -1.19755    -1.34937     1.22612
H     -1.16109    -2.30070     1.00989
O     -2.34684    -0.87270     0.53066
H     -1.99309    -0.78753    -0.37008
