 32
-1213.3097016730542
O      2.66860     1.53071     2.58275
H      3.21597     2.15287     3.06909
O      2.76802     2.06483     1.26523
H      1.84603     2.36491     1.08957
O     -1.25286    -3.19026    -0.77895
H     -1.98137    -2.65586    -1.11254
O     -1.18285    -2.70788     0.57024
H     -0.22367    -2.62708     0.70544
O     -2.73539    -0.12232    -2.58210
H     -3.30792    -0.40926    -3.29834
O     -3.15592    -0.97440    -1.51495
H     -3.11692    -0.33566    -0.76166
O      0.22385     2.47612     0.47831
H      0.10158     1.90117    -0.30661
O     -0.47955     1.76956     1.50367
H      0.02513     0.93250     1.54614
O      3.30657    -0.12690    -0.17011
H      3.20414     0.68758     0.37154
O      2.97550     0.35599    -1.46672
H      3.78459     0.18181    -1.95461
O      0.37231     0.90576    -1.70654
H      1.31189     0.64221    -1.68085
O     -0.25720    -0.37469    -1.65299
H     -1.13275    -0.20332    -2.06935
O      0.57250    -0.54341     0.82981
H      0.20319    -0.55819    -0.08124
O      1.37815    -1.72170     0.82741
H      2.20792    -1.33036     0.49702
O     -2.94934    -0.39114     1.53157
H     -2.31773    -1.08032     1.26830
O     -2.71797     0.60629     0.54092
H     -1.99259     1.15049     0.92427
