 40
-1516.6374056601992
O      1.68814     4.04081    -1.07422
H      0.87439     3.65241    -0.72094
O      2.65849     3.08716    -0.65484
H      2.51433     2.33358    -1.26595
O      0.19957    -0.17166     0.94228
H      1.02391     0.32631     1.15440
O      0.10887    -1.09093     2.03426
H     -0.68545    -0.73315     2.47866
O      1.70998     1.06454    -2.21664
H      0.75967     1.25438    -2.15096
O      1.80601    -0.13970    -1.45052
H      1.68496    -0.84377    -2.11252
O     -2.12614     0.61537    -1.02558
H     -2.42861    -0.04582    -0.38096
O     -0.88289     0.05702    -1.44173
H     -0.38666    -0.07952    -0.59259
O     -0.90269     2.38836     1.50350
H      0.02690     2.43292     1.78364
O     -0.75128     2.63668     0.09412
H     -1.36152     1.97549    -0.28987
O      2.32108     1.22513     1.73567
H      3.01029     1.21713     2.40796
O      1.84454     2.57286     1.78833
H      2.24544     2.92471     0.95124
O     -2.42222    -0.43012     2.73816
H     -2.78105    -1.14929     2.20109
O     -2.94202     0.69715     2.01997
H     -2.14908     1.26153     1.92494
O     -2.56714    -2.85937    -0.52950
H     -2.09618    -2.62538    -1.34684
O     -2.04250    -1.92093     0.40541
H     -1.19827    -2.30032     0.70454
O      1.59130    -3.44304     0.57042
H      1.40906    -2.62868     1.06384
O      0.37117    -3.55619    -0.16489
H      0.05458    -4.43915     0.05507
O      0.73685    -2.47570    -2.62749
H      0.69059    -2.96523    -1.78693
O     -0.64889    -2.18388    -2.85339
H     -0.71790    -1.27846    -2.48602
