 24
-909.9739120314248
O     -1.52989    -0.15415    -1.51323
H     -0.94092     0.60061    -1.37451
O     -2.77046     0.37854    -1.04463
H     -2.95928    -0.22366    -0.31210
O      2.17387    -0.41011    -2.91519
H      2.93302    -0.31926    -3.49714
O      2.74980    -1.13190    -1.82077
H      2.00287    -1.69708    -1.58441
O      0.40812    -1.05887     0.63607
H      0.68297    -0.23513     0.17023
O      0.25829    -1.91539    -0.50250
H     -0.44878    -1.44649    -0.98837
O     -2.15421    -1.22252     1.37787
H     -1.19036    -1.20020     1.18387
O     -2.30177    -0.11727     2.27681
H     -2.36654    -0.54782     3.13719
O     -0.36137     1.66809     1.76962
H     -1.13817     1.08222     1.90427
O      0.53506     1.23550     2.78886
H      0.95347     0.47827     2.35769
O      1.04795     0.95785    -0.85281
H      1.77458     0.75416    -1.46987
O      1.53116     2.08549    -0.09913
H      0.85650     2.08121     0.60958
