 36
-1364.975259808003
O      0.77856     3.68420     0.38135
H      1.46855     4.30212     0.12512
O      1.55983     2.57350     0.81920
H      0.91156     2.09920     1.38539
O     -0.28903     1.29451     2.25272
H     -1.02995     0.73562     1.88759
O      0.25978     0.42332     3.24291
H     -0.05805     0.83845     4.04957
O     -1.85423    -2.91799     1.62390
H     -2.40579    -3.63458     1.95235
O     -1.52174    -3.39291     0.30652
H     -0.85746    -2.71250     0.06677
O     -1.83686    -1.73055    -2.29578
H     -2.40448    -1.55428    -1.52669
O     -2.20918    -0.70722    -3.21182
H     -1.62232     0.01644    -2.94869
O     -0.37122     1.56045    -2.19731
H      0.59651     1.41997    -2.13940
O     -0.68665     1.75344    -0.81243
H     -0.23549     2.59180    -0.59279
O     -2.49929    -0.08085    -0.04627
H     -1.78785     0.52946    -0.32435
O     -2.20993    -0.26775     1.33801
H     -2.15559    -1.24482     1.40651
O      2.73057     0.16544    -1.25477
H      1.96738    -0.40611    -1.49072
O      2.21633     1.46597    -1.51335
H      2.11190     1.81413    -0.60771
O      2.02426    -0.95853     1.64192
H      1.56906    -0.52445     2.38036
O      3.09075    -0.03570     1.40181
H      3.10347    -0.03863     0.42507
O      0.14632    -1.41499    -0.18581
H      0.93396    -1.22729     0.38048
O      0.67058    -1.47547    -1.52436
H     -0.19194    -1.60197    -1.98701
