 32
-1213.311400556444
O      2.94067    -1.93770     0.33321
H      2.06786    -2.38823     0.28352
O      2.89097    -1.41453     1.65901
H      3.40399    -2.05649     2.16002
O      0.44999    -2.92630     0.36028
H      0.09082    -2.53740     1.18511
O     -0.34433    -2.27486    -0.62707
H      0.29156    -1.67983    -1.07409
O     -1.02704     2.94216    -0.15565
H     -1.35625     2.46882     0.62974
O      0.38899     2.84072     0.02395
H      0.59416     2.00531    -0.42257
O     -0.26464    -1.55227     2.55231
H     -1.15406    -1.14377     2.51522
O      0.50403    -0.37146     2.27424
H      1.36769    -0.76478     2.03993
O     -1.07879     2.36337    -3.02447
H     -0.91963     2.80928    -2.17471
O      0.14804     1.66138    -3.19564
H      0.55461     2.12074    -3.93999
O      1.19865    -0.48450    -1.90344
H      0.75981     0.19482    -2.44654
O      1.95404     0.35932    -1.02820
H      2.65286    -0.24761    -0.74218
O     -1.53431     1.33050     2.11255
H     -0.62951     0.99025     2.22550
O     -2.26682     0.10188     2.12487
H     -2.44610    -0.03665     1.17367
O     -2.44371    -0.60726    -0.46711
H     -1.85138    -1.38394    -0.45853
O     -1.57930     0.28922    -1.17484
H     -2.17873     0.78616    -1.74737
