 36
-1364.972715506967
O      2.50599     3.28442    -0.40615
H      3.23359     3.82164    -0.08042
O      2.92923     1.99080     0.02744
H      2.23212     1.75860     0.69059
O     -3.97462    -0.84324    -1.62870
H     -4.81292    -0.43861    -1.87109
O     -3.22302     0.30715    -1.23145
H     -2.44163     0.26011    -1.82397
O      2.41745     0.65213    -2.20135
H      2.77874     1.15828    -1.43278
O      3.11870    -0.58084    -2.07922
H      3.38765    -0.74052    -2.98769
O     -0.84087    -0.31383    -2.36324
H     -0.71360    -1.15112    -1.86386
O     -0.18039     0.60126    -1.48915
H      0.73461     0.58825    -1.84290
O      0.89325     1.34774     1.64689
H      0.54004     0.58380     2.14254
O     -0.26271     1.77719     0.93080
H     -0.17852     1.29235     0.08571
O     -2.56226     1.13311     2.04083
H     -1.72193     1.54741     1.75500
O     -2.45613    -0.11151     1.35614
H     -2.78431     0.10267     0.45588
O     -1.81644    -2.81463    -0.09451
H     -2.48940    -2.26915    -0.52417
O     -0.61295    -2.30680    -0.65810
H     -0.19728    -1.84852     0.09330
O      0.12744    -1.94841     2.20776
H     -0.47152    -2.63645     2.51365
O     -0.36652    -0.75537     2.82782
H     -1.23527    -0.60486     2.37771
O      2.66002    -0.83199     1.16456
H      2.14444    -1.24120     1.86876
O      1.67948    -0.88892     0.12827
H      2.21867    -0.96785    -0.67516
