 32
-1213.3113365391632
O      1.57726    -0.25834     1.39333
H      1.92677     0.26049     0.63464
O      1.74592    -1.59927     0.93897
H      1.17640    -1.61416     0.14702
O     -2.85361     0.14189    -1.06895
H     -2.53898    -0.77581    -1.07095
O     -1.72973     0.70970    -0.38431
H     -1.77941     1.65790    -0.61789
O      3.11181    -0.76235    -2.66159
H      3.76419    -1.46658    -2.72954
O      2.00534    -1.27653    -3.39984
H      1.35147    -1.37404    -2.69058
O     -1.48967     3.31520    -0.41045
H     -1.79929     4.15293    -0.05130
O     -0.20225     3.16623     0.18249
H     -0.38701     2.58115     0.95427
O      2.18252     0.96880    -0.87726
H      2.59523     0.37638    -1.54108
O      0.94613     1.23255    -1.54887
H      0.71104     2.09380    -1.17240
O     -0.00880    -1.49553    -1.06873
H     -0.18399    -0.53582    -1.09116
O     -1.26224    -1.99734    -0.60822
H     -1.11950    -2.09508     0.35716
O     -0.79708    -2.41593     2.00221
H      0.16658    -2.39854     2.11968
O     -1.27169    -1.84648     3.22934
H     -1.46249    -0.93026     2.95479
O     -1.68702     0.65751     2.25941
H     -1.92927     0.56549     1.31602
O     -0.43464     1.34557     2.13619
H      0.20366     0.62279     1.95168
