 28
-1061.6436731470653
O     -1.33598    -1.03146    -0.71727
H     -2.09006    -0.46960    -0.98422
O     -1.48529    -2.22062    -1.50240
H     -0.54241    -2.39690    -1.64024
O      1.51923    -1.55581     1.73819
H      0.62092    -1.75971     2.05399
O      1.50205    -0.13447     1.97514
H      2.21006     0.15828     1.37809
O     -1.15566     0.26965     2.00476
H     -0.19445     0.44354     1.98900
O     -1.16907    -1.16919     1.91998
H      0.53269    -0.26302    -1.32612
O      0.22117     1.59785    -0.34306
H      1.11127     1.95683    -0.50845
O     -0.54314     2.17906    -1.39855
H     -1.32990     2.42949    -0.89975
O     -2.83328     1.59441     0.29727
H     -2.29350     1.02562     0.88649
O     -3.37450     0.65135    -0.62934
H     -4.29000     0.57621    -0.34199
O      1.24208    -1.99140    -0.97628
H      1.39792    -1.82619    -0.02653
O      1.37984    -0.68952    -1.55897
H     -1.30509    -1.27645     0.95709
O      3.15222     0.60251    -0.13099
H      2.59401     0.10945    -0.78364
O      2.86212     1.95695    -0.47431
H      3.60807     2.19010    -1.03537
