 16
-606.6379176961942
O     -2.44588     0.72670     1.30709
H     -2.46776     0.34960     2.19256
O     -1.16109     0.27087     0.85951
H     -0.62477     1.08440     0.84167
O      1.07738     1.58134    -0.33062
H      1.48955     0.69469    -0.33325
O      1.17898     1.90159     1.06166
H      1.29109     2.85379     1.00827
O      1.64199    -1.04955    -0.33829
H      0.91110    -1.45116    -0.84764
O      1.35731    -1.45238     1.00417
H      0.58930    -0.89909     1.20768
O     -0.74624    -0.42143    -1.98063
H     -1.14815    -0.17439    -1.13860
O     -0.53135    -1.81057    -1.72389
H     -0.68666    -2.19419    -2.59145
