 32
-1213.3086783887957
O      2.33824     2.36203     0.27851
H      1.77115     2.57907    -0.47608
O      3.63489     2.30416    -0.32251
H      3.73001     1.34747    -0.45201
O     -0.99625    -2.04184    -0.79709
H     -0.67599    -1.13995    -0.98393
O     -2.23101    -1.79206    -0.12589
H     -2.70619    -1.22597    -0.77126
O     -2.25478    -0.40841     2.15705
H     -2.14004    -1.07541     1.44679
O     -3.41118     0.27535     1.68530
H     -4.10767    -0.06612     2.25674
O      2.67512    -0.82324    -1.35327
H      2.24936    -1.33457    -0.62573
O      3.88122    -0.42018    -0.71390
H      4.53870    -0.81235    -1.29252
O     -0.31579     1.34459     1.30010
H     -0.97427     0.88916     1.85771
O      0.87794     0.63619     1.65350
H      1.54064     1.22825     1.24123
O      0.89434     1.15629    -1.78321
H      1.58910     0.47684    -1.71154
O     -0.19907     0.45846    -1.19512
H     -0.30369     0.91092    -0.32669
O      0.62656    -2.83750     1.20403
H     -0.00887    -2.80631     0.46679
O      1.53113    -1.81216     0.79757
H      1.18060    -1.01544     1.24212
O     -3.04700     0.19747    -1.65840
H     -2.20860     0.58976    -1.93737
O     -3.60252     1.23303    -0.84729
H     -3.52965     0.84359     0.03820
