 36
-1364.9734856252978
O      0.97716     1.66212    -2.05542
H      0.41763     0.86631    -1.90956
O      2.23783     1.19978    -1.57927
H      2.80154     1.38833    -2.33543
O     -0.61670     1.37700     2.53855
H      0.01056     0.73821     2.90692
O     -0.39110     1.07919     1.16032
H     -0.69820     1.89774     0.71772
O     -2.85660    -1.17864     0.66701
H     -3.50453    -1.49810     1.30140
O     -1.67723    -1.18456     1.46675
H     -1.29173    -0.29345     1.28919
O     -0.18057     3.90443    -0.96130
H      0.31166     3.16192    -1.35314
O     -1.18528     3.16753    -0.25558
H     -1.86780     3.82573    -0.09087
O     -0.58774    -0.40353    -1.48421
H     -1.51817    -0.34233    -1.75981
O     -0.14469    -1.64241    -2.04475
H     -0.14839    -2.21303    -1.24697
O     -2.94783     1.23904    -1.66201
H     -2.29924     1.95370    -1.67380
O     -3.31764     1.27964    -0.28291
H     -3.13022     0.36627     0.00026
O      2.14561    -0.09160     1.64020
H      1.54614     0.40750     1.06258
O      1.20515    -0.81320     2.44775
H      1.19300    -1.68372     1.99288
O      3.68981    -1.78466     0.28950
H      3.21000    -1.18367     0.89516
O      2.74793    -1.91143    -0.77455
H      2.53212    -0.99467    -1.00734
O     -0.17502    -3.07528     0.25701
H     -0.71866    -2.48751     0.81414
O      1.08117    -3.03295     0.93707
H      1.68830    -2.78524     0.20472
