 24
-909.9761302926714
O     -2.35170     0.40929     0.72821
H     -2.15375     0.22910    -0.21317
O     -2.19692    -0.88427     1.31229
H     -1.23151    -0.96069     1.39106
O     -0.57960    -3.13451    -0.44764
H      0.31202    -2.88285    -0.16809
O     -0.58681    -2.59735    -1.77303
H     -0.95803    -3.32627    -2.27869
O      2.53629     1.58115     0.55517
H      3.13431     0.90143     0.89697
O      2.92158     1.67786    -0.81761
H      2.18483     1.22404    -1.25120
O      0.05168     0.60713    -1.39824
H     -0.19380     1.38414    -0.84777
O     -1.22445     0.00817    -1.65862
H     -0.98965    -0.94210    -1.70119
O      1.30293    -1.07240     0.29434
H      0.84512    -0.49940    -0.35401
O      0.53895    -0.86067     1.48615
H      0.62512     0.09429     1.63598
O     -0.09236     2.60393     0.34737
H      0.84416     2.81417     0.46871
O     -0.32886     1.89162     1.57599
H     -1.18622     1.45544     1.36790
