 32
-1213.302704937078
O      2.93864    -0.08747    -1.63285
H      1.96267     0.03810    -1.63585
O      3.02303    -1.38789    -1.04941
H      3.18587    -1.94496    -1.81553
O      0.99656    -0.73655     1.64615
H      0.98736     0.15537     1.22906
O      0.85585    -1.63299     0.53779
H      1.71890    -1.57124     0.08126
O      0.29650     0.17617    -1.60400
H     -0.15624     0.65119    -0.88874
O     -0.66508     0.17641    -2.65175
H     -0.96980    -0.73734    -2.59849
O      3.66009     1.57122     0.59236
H      3.60956     1.08089    -0.23908
O      3.13516     2.83006     0.16968
H      3.75866     3.44423     0.56626
O      0.75897     1.72204     0.69456
H      1.57063     2.26678     0.63386
O      0.08389     2.26210     1.83840
H     -0.72630     1.71444     1.78276
O     -1.39612    -2.76214    -1.46520
H     -1.89480    -3.51742    -1.14133
O     -1.61764    -1.81316    -0.41747
H     -0.71940    -1.74362    -0.01376
O     -4.34825    -0.19200     0.60924
H     -5.20560     0.24083     0.65349
O     -4.02319    -0.05065    -0.77489
H     -3.28813    -0.67825    -0.82648
O     -1.88185     0.56273     1.34738
H     -2.81903     0.35902     1.14505
O     -1.62061    -0.35007     2.42177
H     -0.69801    -0.59668     2.22765
