 32
-1213.3063452492374
O      1.05691    -1.17167    -0.70199
H      0.90556    -1.54081    -1.59153
O      2.22332    -1.86125    -0.23142
H      1.94403    -1.96174     0.69198
O     -0.45747    -2.20986     1.58664
H     -0.42868    -1.96927     0.64459
O      0.72154    -1.54734     2.05973
H      0.42322    -0.61850     2.13926
O     -0.31681    -0.13181    -3.45576
H     -0.92917    -0.08215    -2.69981
O      0.20792    -1.45158    -3.29108
H      0.69825    -1.55075    -4.11216
O      1.79197     3.45518     0.20598
H      1.59006     2.79174    -0.49209
O      2.02512     2.55740     1.30099
H      2.97081     2.66547     1.45349
O     -1.77640     0.20210    -1.15339
H     -1.19836     0.62622    -0.49284
O     -1.88852    -1.13319    -0.67023
H     -2.65886    -1.09419    -0.08114
O      1.78327     1.33977    -2.53484
H      1.05023     1.01520    -3.07975
O      1.08735     1.41521    -1.28692
H      1.22149     0.50839    -0.93107
O     -0.51140     1.68332     1.22662
H      0.33945     2.15465     1.34186
O     -0.50766     0.81511     2.36146
H     -1.45310     0.58186     2.41476
O     -2.98611    -0.19087     2.61007
H     -3.40856    -0.35517     3.45799
O     -3.01338    -1.47751     2.00155
H     -2.07662    -1.75122     2.06579
