 36
-1364.9689313580473
O      2.69412     0.85765     0.41632
H      2.65823    -0.05075     0.04853
O      1.79887     1.53649    -0.46911
H      0.98519     1.59288     0.07786
O     -0.53227    -1.04794     1.13478
H      0.11998    -0.83382     1.82677
O     -1.76501    -0.57484     1.68027
H     -1.79935     0.29279     1.25466
O      0.09252    -0.80344    -2.03143
H     -0.77506    -0.57491    -1.64757
O      0.55182     0.43014    -2.60126
H      1.12951     0.79451    -1.89263
O     -2.79574    -0.78619    -1.06624
H     -2.84924    -1.12652    -0.16420
O     -2.44777     0.57899    -0.77036
H     -2.79484     1.04279    -1.54999
O     -1.61408     1.99036    -3.04187
H     -0.81216     1.42895    -2.96366
O     -1.27575     3.08550    -2.19551
H     -1.08727     3.78954    -2.82332
O      2.12653    -1.56262    -0.49174
H      1.36464    -1.46731    -1.10291
O      2.37295    -2.96951    -0.52301
H      1.75835    -3.26483     0.16500
O     -0.36522     1.80742     1.02867
H     -0.09002     1.88809     1.96433
O     -1.04516     3.03653     0.77162
H     -1.09267     2.96216    -0.19178
O      1.44819     0.37522     2.76191
H      2.02731     0.67614     2.03094
O      0.99834     1.62366     3.27966
H      1.01167     1.45747     4.22573
O      0.62290    -3.92499     1.38510
H      0.57703    -4.88380     1.43786
O     -0.50400    -3.64863     0.53820
H     -0.57454    -2.69058     0.71101
