 36
-1364.976903971685
O      1.66674     2.84712    -1.24573
H      1.02946     2.43636    -1.84805
O      1.36126     2.12530    -0.05689
H      2.24766     1.83003     0.23848
O     -2.24205    -1.16652    -0.44052
H     -1.59757    -0.65387     0.09820
O     -3.41872    -1.01870     0.35397
H     -3.56863    -0.06403     0.30319
O      1.26322    -1.70833    -1.37250
H      1.41878    -1.97028    -0.44413
O      1.83335    -0.39757    -1.42301
H      1.07717     0.17099    -1.18609
O     -0.66805     1.13802    -1.78119
H     -1.55513     1.39525    -1.45976
O     -0.94333     0.35292    -2.93592
H     -0.79706    -0.54257    -2.59548
O      3.75590     1.18436     0.61263
H      4.56695     1.43496     0.15675
O      3.71807    -0.23232     0.42111
H      3.10127    -0.31741    -0.34354
O     -0.70128     1.56824     1.49343
H     -0.04151     1.99473     0.90867
O     -0.55041     0.21798     1.04438
H      0.23509    -0.13539     1.53296
O     -3.21790     1.94906     0.55624
H     -2.31636     1.89653     0.94054
O     -2.92414     2.19246    -0.81746
H     -3.20617     3.10322    -0.94250
O      1.47177    -2.13918     1.32613
H      0.58098    -2.46724     1.58205
O      1.57057    -0.96488     2.14171
H      2.49796    -0.72856     1.98532
O     -1.04624    -2.85945     1.64965
H     -1.96248    -2.92938     1.94718
O     -1.06760    -3.44684     0.34372
H     -1.48791    -2.72693    -0.17362
