 32
-1213.3060351586441
O      1.58899    -2.12740     1.25243
H      1.35237    -1.28629     1.67512
O      0.56312    -3.00703     1.73116
H     -0.03541    -3.03768     0.96641
O      2.19501    -1.72578    -1.40141
H      2.08631    -1.99271    -0.46781
O      1.54392    -2.77211    -2.11271
H      0.62528    -2.46753    -2.10127
O     -2.92962     0.58492     0.24579
H     -2.66263    -0.31641     0.48124
O     -2.64307     0.59080    -1.16922
H     -2.04745     1.35180    -1.20592
O     -1.15071     2.32876     1.19908
H     -1.96811     1.80073     1.12251
O     -0.86059     2.44391    -0.20266
H     -0.09914     3.06601    -0.23804
O      1.34526     3.72891    -0.81292
H      1.94730     4.47087    -0.71503
O      2.22638     2.61669    -0.60712
H      1.83217     1.95221    -1.19730
O     -1.18213    -1.60324    -0.08311
H     -0.45153    -0.94775     0.00420
O     -1.21977    -1.69407    -1.51236
H     -1.73635    -0.89727    -1.72425
O      0.11780     0.13149     2.59573
H     -0.16643     1.01118     2.30376
O     -1.14142    -0.53300     2.78490
H     -0.85112    -1.45594     2.76302
O      0.89653     0.52382    -1.68573
H      1.45737    -0.28136    -1.81330
O      0.58314     0.29210    -0.29850
H     -0.00904     1.05347    -0.14161
