 32
-1213.3089641881018
O     -1.41398    -3.07037     0.46189
H     -2.30994    -2.79175     0.21515
O     -0.87299    -1.83955     0.94862
H     -0.44473    -1.48185     0.13755
O      1.85162    -2.10526    -0.75601
H      1.40995    -2.93829    -0.56081
O      0.72384    -1.27675    -1.07700
H      1.13677    -0.38208    -1.18911
O     -3.09030    -0.20345     0.89982
H     -2.49771    -0.72350     1.46416
O     -3.30791    -1.13334    -0.16987
H     -2.89734    -0.65037    -0.90933
O     -1.47272    -0.21553    -2.98241
H     -0.68324     0.34229    -2.88155
O     -2.36131     0.44521    -2.08065
H     -2.99845     0.87290    -2.66173
O      2.13170     2.74363     0.90202
H      2.28172     3.67359     1.10125
O      3.42538     2.17156     1.08954
H      3.15782     1.25014     1.25656
O      0.36050     1.63367    -1.70083
H     -0.22733     1.57401    -0.91208
O      1.62745     1.19454    -1.19756
H      1.85715     1.88429    -0.53749
O     -1.19217     1.62736     0.45282
H     -2.01191     1.09278     0.51910
O     -0.46969     1.17371     1.59932
H      0.39516     1.58384     1.45093
O      1.76244    -0.96224     2.29025
H      0.89446    -1.17944     1.91748
O      2.42896    -0.38079     1.17708
H      2.46500    -1.10968     0.52701
