 36
-1364.9748788647594
O     -3.34525     1.68294    -0.35602
H     -2.52339     1.59774    -0.88676
O     -3.37003     0.40453     0.27545
H     -4.12482    -0.02662    -0.13714
O     -1.11705    -1.97533     0.36718
H     -0.65875    -2.44185     1.08507
O     -0.95854    -0.63212     0.83838
H     -1.83854    -0.25212     0.65515
O      2.12023    -0.30869     2.65059
H      1.81888     0.42830     2.08353
O      3.34841    -0.68029     2.00491
H      3.22658    -1.64461     2.01324
O     -0.52639    -1.42288    -2.67822
H     -1.09405    -0.78842    -2.21090
O      0.03127    -0.58295    -3.69098
H     -0.34230    -0.96897    -4.48967
O     -0.83713     1.87962    -2.93948
H     -0.43338     1.13415    -3.40593
O     -1.09964     1.22361    -1.69944
H     -0.22765     1.25859    -1.22848
O     -1.01953     3.14820     0.74961
H     -0.89966     4.09970     0.66272
O     -1.98048     3.03028     1.79727
H     -2.74204     2.72455     1.28162
O      1.10259     0.94761    -0.29124
H      0.89289     0.02694    -0.03554
O      1.15067     1.57910     0.99661
H      0.30476     2.07422     1.00562
O      1.63508    -1.92973    -0.69228
H      1.12331    -1.74455    -1.49434
O      2.93678    -1.41787    -0.99208
H      3.13365    -0.96352    -0.15896
O      1.94644    -2.99767     1.71316
H      1.74395    -2.76666     0.78906
O      0.73940    -2.56494     2.35594
H      1.00944    -1.66880     2.63584
