 16
-606.6355494610543
O     -2.60486    -0.25914     1.18099
H     -3.27104    -0.43454     1.85129
O     -1.43583    -0.09706     1.99433
H     -0.90296     0.45627     1.40275
O      0.31067     1.07203     0.19979
H      0.73785     1.66946    -0.43814
O      1.10027    -0.10972    -0.02753
H      0.39423    -0.72716    -0.30326
O      2.05093     2.46212    -1.35866
H      2.62449     3.05628    -0.86317
O      2.96407     1.42434    -1.74741
H      2.64715     0.69615    -1.19154
O     -1.06419    -1.63534    -0.54511
H     -1.71439    -1.31987     0.11261
O     -0.85200    -2.98509    -0.13204
H     -1.16790    -3.45795    -0.90606
