 24
-909.9775965897414
O     -1.85067    -1.47360    -1.69622
H     -2.03186    -0.63559    -2.14616
O     -0.62654    -1.16553    -1.04219
H     -0.93753    -0.79122    -0.19182
O     -1.49612     0.33788     0.99274
H     -1.94072     0.96413     0.38376
O     -0.46373     1.17343     1.53086
H      0.03237     0.53739     2.08798
O      0.46393     1.95345    -0.85356
H      0.30177     1.72723     0.08890
O      1.41257     0.97735    -1.26505
H      0.84378     0.21582    -1.47652
O     -2.62784     1.78166    -0.94209
H     -2.84545     2.70893    -1.08078
O     -1.82664     1.46350    -2.08193
H     -0.93400     1.69186    -1.73047
O      2.32315    -0.14269     2.37570
H      2.85377    -0.42901     3.12651
O      1.06317    -0.76677     2.65534
H      1.07763    -1.49856     2.00211
O      2.40531    -1.87602    -0.22606
H      2.55288    -1.04443     0.24909
O      1.33168    -2.44253     0.53793
H      0.63822    -2.51431    -0.13476
