 36
-1364.970270833283
O      1.35152     2.17673    -0.28573
H      0.86896     2.08748    -1.13533
O      2.19529     1.02752    -0.28833
H      1.92951     0.55930     0.53322
O     -1.10879    -1.70969    -1.17589
H     -1.30422    -2.35050    -0.47657
O     -0.48284    -0.73739    -0.33412
H     -1.07018     0.03852    -0.43833
O      0.35442    -0.37439     2.53548
H      0.24825     0.59188     2.60129
O      1.59600    -0.47358     1.83914
H      1.53170    -1.33885     1.39395
O      2.00383    -0.90019    -2.15007
H      2.05749    -0.10068    -1.58856
O      0.76570    -0.70357    -2.83956
H      0.14208    -1.24625    -2.32134
O     -0.47855     2.88549     1.50604
H      0.32449     2.70191     0.97241
O     -0.16562     2.23958     2.73299
H     -0.13044     2.97930     3.34638
O     -2.05218     1.43336    -0.17041
H     -1.71108     2.04610     0.51080
O     -3.31158     1.01596     0.34329
H     -3.06683     0.17803     0.76790
O     -1.40431     1.81595    -3.04014
H     -1.90683     1.97067    -2.23171
O     -0.07306     1.81163    -2.52727
H      0.23840     0.92588    -2.81532
O     -2.10069    -1.30649     1.92386
H     -1.17155    -1.10671     2.15478
O     -1.93185    -2.55034     1.24066
H     -2.69980    -3.03957     1.54883
O      2.94645    -2.77954     0.44604
H      3.12201    -3.72425     0.48591
O      1.67710    -2.77653    -0.22216
H      1.86632    -2.18739    -0.98652
