 20
-758.3096111635274
O     -1.03696    -0.09865     1.98151
H     -1.33867     0.60403     1.36768
O      0.37145     0.16735     2.08751
H      0.72149    -0.67596     1.75469
O      2.16886     1.13134    -0.32384
H      2.83281     1.81338    -0.45880
O      1.08725     1.89728     0.20538
H      0.86583     1.36200     0.99899
O      0.56742    -2.22731     0.82813
H      0.53517    -3.07831     1.28022
O     -0.71358    -2.19347     0.18139
H     -1.17984    -1.55855     0.75525
O      0.29309     0.27791    -2.08780
H      1.08777     0.48571    -1.56074
O      0.44513    -1.10608    -2.39521
H     -0.02240    -1.51730    -1.65376
O     -2.02520     0.46712    -0.83183
H     -1.21290     0.40303    -1.38798
O     -1.77029     1.57904     0.03469
H     -0.95036     1.96077    -0.31393
