 36
-1364.9784759964914
O      2.80023     0.57675     0.67000
H      2.20132    -0.16468     0.43440
O      2.40849     1.56882    -0.28422
H      1.69916     2.03048     0.20440
O      0.25267     0.09691     3.05479
H      1.02812     0.67260     3.22444
O     -0.75624     1.09003     2.84087
H     -1.43999     0.57437     2.38425
O     -1.34816    -2.21842    -3.90328
H     -1.14877    -1.28326    -3.73128
O     -2.75528    -2.18593    -4.10999
H     -2.81314    -2.40861    -5.04363
O     -2.44337    -0.24863    -0.68542
H     -2.41021    -1.20052    -0.50100
O     -2.36967     0.32405     0.62811
H     -1.95421     1.17830     0.39943
O     -0.46395     0.13725    -2.45388
H     -1.15268     0.10671    -1.75667
O      0.20514     1.35837    -2.16290
H      1.05359     1.04464    -1.81177
O      0.89288    -1.01957    -0.14760
H      0.60296    -1.61937    -0.86211
O      0.04794    -1.49192     0.91731
H      0.23745    -0.85529     1.63786
O      0.26069     2.59511     0.89694
H     -0.07250     2.13784     1.69691
O     -0.86370     2.44269     0.02711
H     -0.43503     2.21345    -0.82505
O      2.36811     1.74170     2.99796
H      2.74527     1.37331     2.16258
O      3.34247     1.33253     3.96011
H      3.63460     2.18689     4.28923
O     -0.40724    -2.89990    -1.45610
H     -0.86565    -2.89237    -2.31253
O     -1.48829    -3.05209    -0.52981
H     -1.02437    -2.70621     0.25189
