 32
-1213.3064307648585
O      1.31455    -0.36939     2.04086
H      1.68620    -1.03435     1.43992
O      2.17676     0.75469     1.80125
H      1.51688     1.46357     1.68379
O      1.30155    -0.94051    -3.94899
H      1.37418    -1.36895    -4.80744
O      0.91895    -2.02747    -3.10783
H     -0.00634    -1.78123    -2.91236
O     -2.68371    -0.48401    -2.06875
H     -2.75508    -0.65956    -1.11923
O     -1.29833    -0.74741    -2.29559
H     -0.89075     0.12846    -2.20855
O     -2.67384    -0.45704     1.35132
H     -2.23988    -0.50269     2.21671
O     -1.54392    -0.17820     0.53091
H     -1.45275     0.79895     0.57825
O      0.81603     0.99024    -1.18404
H      1.16068     0.18061    -0.74312
O      1.92637     1.38697    -1.97513
H      1.88636     0.71068    -2.66199
O      1.61350    -1.46872    -0.52570
H      1.67457    -1.83832    -1.42815
O      0.60175    -2.28859     0.04606
H     -0.15356    -1.67593     0.07603
O     -1.06828     1.27722     3.72728
H     -0.89316     1.32298     4.67237
O     -0.93941    -0.11548     3.45772
H     -0.08668    -0.14768     2.97486
O      0.15825     2.54667     1.72219
H     -0.39366     2.15124     2.42373
O     -0.66863     2.34711     0.57458
H     -0.00596     2.10195    -0.10073
