 36
-1364.9823889884567
O      1.51571     2.35310     1.59870
H      1.77914     3.26119     1.75974
O      1.06530     1.94988     2.88871
H      1.35326     1.02118     2.87497
O     -1.26719     2.83074     1.79546
H     -0.49832     2.57477     2.33850
O     -2.37204     2.50039     2.63494
H     -2.44636     1.54327     2.46513
O      0.31741    -0.77244     1.55227
H      0.39203    -1.53835     0.93730
O      1.63353    -0.60277     2.07580
H      2.13100    -0.55751     1.23072
O      2.42852    -1.66581    -2.78589
H      2.97271    -2.14600    -3.41587
O      1.17538    -2.33768    -2.90269
H      0.59128    -1.58409    -3.18514
O      0.11971    -2.50226    -0.39758
H      0.59319    -2.56699    -1.25143
O     -1.23925    -2.51351    -0.84998
H     -1.68403    -1.95699    -0.18171
O     -2.17305    -0.13859     2.02309
H     -1.21380    -0.31440     2.02323
O     -2.52903    -0.70145     0.75112
H     -2.44647     0.09119     0.17775
O      2.47677    -0.47789    -0.39328
H      2.48549    -0.96127    -1.24377
O      2.60689     0.87303    -0.83081
H      2.24458     1.33401    -0.06037
O     -1.78134     1.53887    -0.43721
H     -1.62711     2.13048     0.34116
O     -0.45783     1.13534    -0.76284
H     -0.18559     0.64745     0.03120
O     -0.44687    -0.32226    -3.02694
H     -0.54470     0.25041    -2.23456
O     -1.66720    -1.05314    -3.09540
H     -1.54588    -1.68719    -2.36785
