 36
-1364.9796700179975
O      0.78545     1.46162     2.90341
H      0.11241     0.80048     2.60461
O      0.32986     2.64111     2.25192
H     -0.21417     3.06289     2.92356
O     -1.09244    -1.28378     3.23775
H     -0.35580    -1.88176     3.03404
O     -0.96562    -0.37111     2.14287
H     -1.51345    -0.78834     1.43907
O     -2.07888    -1.62216     0.05607
H     -2.59067    -1.09109    -0.59048
O     -0.77677    -1.58115    -0.53204
H     -0.30248    -2.21916     0.04361
O      2.61585    -0.04307    -1.71986
H      3.54204    -0.02604    -1.97746
O      2.06084     0.99581    -2.52255
H      1.20738     0.57721    -2.77881
O     -3.38551     0.02510    -1.65568
H     -2.66746     0.54324    -2.08400
O     -3.88293    -0.72812    -2.76080
H     -4.78013    -0.38925    -2.81779
O      1.22453     3.07444    -0.95045
H      1.63099     2.42142    -1.54268
O      0.17928     2.26459    -0.41258
H      0.27771     2.41726     0.55064
O      1.79636    -0.33240     0.82251
H      1.99666    -0.13470    -0.11515
O      2.85504     0.35655     1.49422
H      2.31612     0.89517     2.09710
O     -1.09342     1.15621    -2.44353
H     -0.60078     1.56912    -1.69332
O     -0.35247    -0.04289    -2.67677
H     -0.58001    -0.59416    -1.89570
O      1.11607    -2.50224     2.10082
H      1.41044    -1.68175     1.63198
O      0.61100    -3.25752     1.00394
H      1.31248    -3.89538     0.84529
