 32
-1213.3085470467975
O      2.49050    -0.94820     3.01123
H      2.73696    -1.77764     3.42865
O      1.15121    -1.22287     2.62215
H      0.78852    -0.31726     2.62666
O     -1.26524    -0.54031    -2.65851
H     -0.61330    -0.78138    -1.96301
O     -0.51472     0.42524    -3.38813
H     -0.30629    -0.04848    -4.19939
O     -2.48119    -2.76192    -0.70092
H     -1.60365    -2.47168    -0.39129
O     -3.21059    -1.53486    -0.72011
H     -3.04457    -1.20884    -1.61756
O      1.17038     1.64983    -1.66080
H      0.61341     1.21940    -2.33665
O      0.19950     2.42848    -0.96303
H      0.44119     2.26775    -0.03314
O      3.08508     0.97359     0.18004
H      2.47031     1.20634    -0.53935
O      2.74057    -0.40029     0.39402
H      2.84313    -0.50102     1.35995
O     -2.01599     0.44424     0.60301
H     -2.51181    -0.33908     0.26298
O     -2.52429     1.49814    -0.22268
H     -1.76985     1.64831    -0.81109
O     -0.07046     1.11168     2.29273
H     -0.80986     0.98541     1.65256
O      0.70388     2.12426     1.66436
H      0.62213     2.84635     2.29333
O      0.47329    -1.07961    -0.75041
H      1.34913    -0.80710    -0.35738
O      0.05235    -2.15032     0.10279
H      0.17640    -1.75250     0.97721
