 36
-1364.9738583734477
O      1.92105     1.74669     2.16527
H      2.31602     1.29653     1.40313
O      1.92177     0.73179     3.16445
H      1.01069     0.40806     3.11132
O     -0.75330    -0.62419     2.19367
H     -1.67863    -0.66257     1.89226
O     -0.07706    -0.97036     0.98747
H     -0.11418    -0.13886     0.46178
O      1.23261     3.56814    -0.37467
H      1.16145     4.51171    -0.54397
O      0.32960     3.40316     0.71570
H      0.91782     2.97718     1.37104
O      2.21533    -2.02863    -0.64183
H      1.53819    -2.72140    -0.79714
O      2.71482    -2.30956     0.66265
H      2.20022    -1.70386     1.21536
O     -1.48216     1.44683     0.13769
H     -0.92104     2.22258     0.33566
O     -2.29403     1.93350    -0.93422
H     -1.83395     1.51053    -1.68474
O     -3.19592    -0.71787    -0.65131
H     -3.19938     0.21881    -0.40163
O     -2.95159    -1.36061     0.60569
H     -2.55638    -2.19326     0.30644
O      1.49004     1.22256    -1.65548
H      1.41043     2.12692    -1.31360
O      1.79394     0.56053    -0.43077
H      1.93879    -0.37641    -0.70445
O     -1.07177    -0.95281    -2.25102
H     -1.89717    -0.88095    -1.73113
O     -0.86202     0.41404    -2.60120
H      0.05734     0.58407    -2.30988
O     -0.12075    -3.30582    -1.25076
H     -0.48695    -2.56115    -1.76224
O     -0.89411    -3.22940    -0.04647
H     -0.45217    -2.48131     0.39748
