 24
-909.9697543258707
O     -1.58914    -0.18832     1.39623
H     -1.69915    -0.41948     0.45371
O     -1.30011    -1.47632     1.95465
H     -0.40353    -1.61174     1.59109
O      1.49437    -0.53409    -2.04289
H      1.03492     0.17696    -1.54656
O      0.37476    -1.22136    -2.60771
H      0.50117    -1.07326    -3.55079
O      1.05478    -1.09990     0.75925
H      1.41391    -0.32041     1.22793
O      2.21899    -1.83739     0.39584
H      2.14122    -1.76398    -0.56406
O     -1.89107    -0.75352    -1.23338
H     -1.08441    -0.96515    -1.74484
O     -2.33333     0.45529    -1.84694
H     -3.23108     0.50809    -1.50639
O      0.38444     2.58814    -0.49383
H      0.44115     2.54679     0.47130
O      0.00256     1.23271    -0.73151
H     -0.91575     1.30494    -1.05016
O      1.46911     0.99678     2.32730
H      1.61278     1.06307     3.27688
O      0.21151     1.65721     2.16247
H     -0.39531     0.90905     1.94997
