 40
-1516.649856323039
O     -1.72001     3.04169    -0.20680
H     -2.27919     2.46601    -0.76716
O     -1.97349     2.46488     1.08230
H     -1.16464     1.92608     1.19610
O      1.41112    -3.43576    -0.11752
H      1.70253    -3.00061     0.72041
O      0.22811    -4.10511     0.31364
H      0.41877    -5.00938     0.05238
O     -1.23428     0.11623    -2.60143
H     -0.49234    -0.47933    -2.38123
O     -2.38263    -0.73268    -2.52087
H     -2.10735    -1.39028    -1.85517
O      0.57612     0.46076     2.26961
H      1.39282     1.01009     2.28589
O      0.05011     0.77838     0.97869
H     -0.41371    -0.05635     0.73428
O     -1.60021    -1.34825     0.61147
H     -2.42863    -0.84350     0.46887
O     -1.64916    -2.29468    -0.45948
H     -1.03976    -2.98086    -0.13257
O      1.81904    -0.41734    -1.10831
H      1.42717     0.45802    -1.31718
O      0.91055    -1.31722    -1.73894
H      1.08322    -2.13440    -1.23262
O      0.92400     2.97040    -0.64482
H     -0.04336     3.07262    -0.48706
O      0.92492     2.01625    -1.70050
H      1.12611     2.55461    -2.47335
O     -3.58917     0.50114     0.25534
H     -3.26225     1.20990     0.84271
O     -3.43626     1.19478    -0.99155
H     -3.17933     0.47893    -1.61003
O      1.93761    -1.81484     1.88105
H      1.32295    -1.08390     2.10533
O      2.98177    -1.13949     1.17886
H      2.53325    -0.85563     0.35363
O      3.34816     2.31224     1.12023
H      2.47663     2.43604     0.71703
O      3.03866     1.46709     2.22235
H      3.47849     0.63873     1.97159
