 28
-1061.6433558168599
O     -1.15676    -2.61852     0.98367
H     -0.19586    -2.44753     1.02881
O     -1.56848    -1.78072     2.07121
H     -2.21249    -1.19150     1.64770
O      0.67027    -0.33269     2.20317
H     -0.18107    -0.69849     2.49768
O      1.14434    -1.45525     1.44348
H      1.52039    -1.03941     0.63147
O     -2.97587     0.24759     1.01021
H     -3.36517     0.95143     1.53431
O     -1.70388     0.81397     0.72067
H      0.80254     1.99084    -1.59474
O      0.49234     2.34657     0.09925
H     -0.30522     1.90511     0.43557
O      1.53078     1.87360     0.95931
H      1.12860     1.11421     1.43192
O     -1.60486    -1.68240    -1.56042
H     -1.49029    -2.19798    -0.74633
O     -0.71802    -0.59351    -1.27245
H     -0.46863    -0.26657    -2.15216
O     -0.22769     1.47183    -3.08720
H      0.11388     1.52452    -3.98365
O      0.99195     1.40702    -2.35581
H     -1.42491     0.24611    -0.03527
O      3.30181     0.35379    -0.44913
H      2.87446     1.01150     0.12779
O      2.16399    -0.44942    -0.78014
H      1.74315     0.09720    -1.46580
