 16
-606.6426519615161
O     -2.19051     0.36228     0.50003
H     -2.66420     0.19719     1.32021
O     -1.12350     1.22267     0.92715
H     -0.49987     0.57403     1.33834
O      1.71348    -0.01495     1.61042
H      1.70586     0.34525     0.71259
O      0.49930    -0.76083     1.66461
H      0.55117    -1.32957     0.86133
O      0.09829     0.96986    -1.71691
H     -0.38339     1.38359    -0.98145
O      1.45367     1.23384    -1.33746
H      1.74052     1.83950    -2.02867
O     -0.94219    -2.08417    -0.68655
H     -1.35316    -1.26032    -0.38456
O      0.43745    -1.72519    -0.80660
H      0.42239    -0.99830    -1.45036
