 40
-1516.6486545474304
O      1.78356     2.35865    -0.94792
H      1.10242     2.41782    -0.24584
O      2.33695     1.07754    -0.66896
H      1.64226     0.46303    -0.99244
O      2.46713     1.00304     2.00253
H      2.59942     1.07289     1.02974
O      3.44956     0.04286     2.40042
H      3.06290    -0.77117     2.04044
O     -1.40514     1.84316    -0.16938
H     -1.14717     2.22509    -1.03532
O     -0.27320     2.11421     0.64631
H     -0.36495     1.46848     1.37377
O     -2.23016    -0.67525    -0.04643
H     -1.91016     0.24463    -0.14826
O     -2.22062    -1.12657    -1.40196
H     -1.47276    -1.74694    -1.38430
O     -1.59896     0.21964    -3.70228
H     -1.88201    -0.27198    -2.91262
O     -0.27761    -0.29710    -3.90425
H      0.23855     0.51740    -3.73961
O      0.35229    -1.95091    -1.90575
H      0.23266    -1.52294    -2.77307
O      0.46375    -0.77480    -1.11747
H      0.52194    -1.14767    -0.21319
O     -0.06190    -0.73195     3.47753
H     -1.02224    -0.90603     3.41291
O      0.01538     0.52414     2.80764
H      0.99253     0.65312     2.73906
O     -2.55491    -1.24524     2.64522
H     -2.51704    -1.12255     1.67755
O     -2.76827    -2.64798     2.76110
H     -3.62279    -2.66463     3.20246
O      2.27401    -2.22029     1.42876
H      2.28154    -3.07758     1.86061
O      0.87758    -1.97644     1.29049
H      0.61924    -1.57194     2.15890
O      0.42258     2.14529    -3.21428
H      1.00133     2.32140    -2.44056
O     -0.85024     2.57256    -2.71847
H     -1.41472     1.93894    -3.20216
