 40
-1516.6457947169044
O      2.39000     2.93057    -0.25690
H      3.20367     3.27381     0.12741
O      1.43225     3.88823     0.19881
H      0.98994     3.38600     0.92360
O      0.89478    -0.18525     1.81942
H      0.49478    -1.02653     1.50435
O      1.85191     0.11626     0.81251
H      1.30312     0.38917     0.04428
O     -3.80981     0.87655    -1.29675
H     -4.50107     0.67820    -1.93473
O     -2.80564     1.45873    -2.11686
H     -2.07075     0.81508    -2.01081
O     -1.20123     2.04557     1.48949
H     -1.28870     2.59590     0.68760
O      0.13209     2.34157     1.93119
H      0.50424     1.43449     1.99521
O     -1.60973     3.48187    -0.78258
H     -2.25940     2.95928    -1.28301
O     -0.47181     3.31961    -1.64539
H      0.20222     3.81291    -1.14051
O     -0.70413    -0.05887    -1.63781
H     -0.44695    -0.91361    -1.22682
O      0.43965     0.75265    -1.36678
H      0.11540     1.65420    -1.56097
O      2.89148    -3.03656     1.24709
H      3.63776    -3.19655     1.83298
O      3.40821    -2.03551     0.37178
H      2.83873    -1.27356     0.60473
O     -0.14235    -2.44672    -0.52272
H      0.24022    -3.35405    -0.51784
O     -0.50115    -2.28634     0.85774
H     -1.40721    -1.92270     0.74176
O      2.23803    -4.66217    -0.78454
H      2.45359    -4.08387    -0.02980
O      0.85828    -4.91898    -0.49389
H      0.66863    -5.64834    -1.09179
O     -2.66641    -0.91867     0.34802
H     -3.13967    -0.24409    -0.18222
O     -2.84182    -0.46754     1.68209
H     -2.10642     0.16138     1.75901
