 32
-1213.314015893877
O      0.68255     1.51720     1.92978
H      1.35259     0.82197     2.06541
O     -0.34664     1.13063     2.83703
H     -1.13530     1.53056     2.42004
O     -0.56833    -1.79930    -2.15714
H      0.31348    -2.20542    -2.21423
O     -0.25184    -0.44179    -2.46808
H     -1.10052     0.01403    -2.28147
O     -1.92111     2.22484    -1.08112
H     -0.95016     2.09933    -1.09092
O     -2.37798     0.99193    -1.64828
H     -2.88507     0.63684    -0.89406
O     -0.09854    -1.00784     0.60040
H     -0.39134    -1.58879    -0.12114
O     -1.17093    -1.14250     1.55126
H     -0.76668    -0.67286     2.29792
O      0.71009     1.91295    -0.71566
H      0.67963     1.71418     0.24290
O      1.62581     0.93611    -1.20886
H      1.01264     0.35566    -1.71484
O      1.79908    -3.16765    -0.37981
H      2.29152    -2.40597    -0.03901
O      1.91466    -2.93768    -1.78372
H      2.19333    -3.80289    -2.09953
O      2.74279    -0.19367     1.84971
H      3.62448     0.07464     2.12656
O      2.97647    -0.60892     0.51077
H      2.47471     0.05701    -0.01309
O     -3.10637     0.60367     0.89035
H     -2.42382    -0.04559     1.15724
O     -2.58413     1.81574     1.45198
H     -2.35120     2.27499     0.62258
