 16
-606.6358919277811
O     -2.08595    -0.02864     0.86456
H     -2.63399    -0.31161     1.60184
O     -0.78736    -0.04453     1.46888
H     -0.37276     0.71566     1.02518
O      0.77693     1.75493     0.10097
H      1.17722     1.01129    -0.39435
O      1.55281     1.69315     1.30316
H      1.28186     2.50872     1.73391
O      1.53643    -0.64540    -0.85456
H      0.65961    -1.03751    -1.04428
O      1.94510    -1.39871     0.29585
H      1.96268    -0.71114     0.97346
O     -1.03080    -1.36307    -1.20842
H     -1.50142    -0.90617    -0.48288
O     -1.34621    -0.53236    -2.33038
H     -1.53468    -1.20405    -2.99177
