 32
-1213.3122043371336
O      0.89872    -1.03353     0.38962
H      0.14751    -1.58034     0.08654
O      0.81455    -1.22945     1.80351
H      0.81961    -0.30373     2.11547
O     -1.21295    -2.52479    -0.25874
H     -1.79281    -2.58366     0.52144
O     -2.06108    -2.05484    -1.30829
H     -2.39151    -1.21010    -0.93033
O      1.88066     1.31773    -2.66990
H      1.96338     1.91800    -1.91300
O      2.53645     0.16167    -2.11227
H      1.86068    -0.50942    -2.30034
O      0.06435    -0.86689    -2.55732
H     -0.68154    -1.41557    -2.24713
O     -0.59157     0.39114    -2.80348
H      0.19982     0.91531    -3.03546
O      2.58868     1.31377     0.60915
H      2.24404     0.57893     0.07359
O      2.76785     2.35140    -0.35295
H      3.71712     2.31547    -0.51034
O     -2.46481     0.26508    -0.06480
H     -2.36640    -0.01055     0.86829
O     -1.24738     1.00375    -0.26667
H     -1.02617     0.77534    -1.20321
O     -0.73119     1.88666     2.23792
H     -0.86626     1.65808     1.29661
O      0.54980     1.31861     2.51609
H      1.14463     1.77908     1.90672
O     -2.20748    -0.62721     2.42240
H     -1.58812    -0.04641     2.89302
O     -1.64374    -1.93810     2.52869
H     -0.69156    -1.77538     2.34496
