 32
-1213.311528444008
O      2.61027    -0.49161     0.59120
H      1.83306    -0.07356     1.02684
O      3.53503     0.59025     0.61426
H      4.36980     0.11387     0.60854
O     -2.82089    -0.74758    -0.17285
H     -2.06216    -1.30749     0.09963
O     -2.72174     0.36204     0.71024
H     -1.86290     0.75974     0.46542
O      0.58030    -1.50998    -1.83317
H     -0.02806    -0.81972    -2.16342
O      1.84130    -0.84747    -1.94318
H      2.16677    -0.90701    -1.02166
O     -2.21617    -0.82401     3.01690
H     -2.61904    -0.45901     2.19445
O     -1.28637     0.21721     3.32380
H     -1.76443     0.75360     3.96553
O      2.72678     2.33326    -1.36870
H      3.01898     1.75748    -0.64796
O      1.44386     1.78817    -1.67104
H      1.67074     0.91441    -2.04560
O      0.16242    -2.07524     1.55125
H     -0.46875    -2.17105     2.27547
O     -0.70489    -2.24970     0.42677
H     -0.09623    -2.11049    -0.32420
O     -2.48298     0.52883    -2.55989
H     -2.72168     0.06438    -1.73550
O     -1.05255     0.48068    -2.48454
H     -0.80030     1.41255    -2.45419
O      0.51686     0.88750     1.45928
H     -0.17196     0.66401     2.11897
O     -0.26809     1.36075     0.35396
H      0.41947     1.56499    -0.31953
