 20
-758.3035663079198
O      0.24363    -2.85585     0.14763
H      0.58513    -2.28944     0.85872
O      0.14755    -1.93001    -0.93170
H     -0.52505    -1.29984    -0.60958
O      2.48495    -0.71745    -0.81203
H      1.69608    -1.30931    -0.87216
O      1.90996     0.49579    -1.30990
H      2.09489     0.44689    -2.25331
O     -1.18959     0.12155     0.16599
H     -2.07440     0.51705     0.04471
O     -0.37790     1.26108    -0.17332
H      0.42036     0.84662    -0.56547
O      2.05105     0.02892     2.04262
H      2.54541    -0.24756     1.25842
O      0.94661    -0.88395     2.00565
H      0.20669    -0.28980     1.81945
O     -3.31562     1.67426    -0.22306
H     -3.77142     2.16540     0.46871
O     -2.72895     2.72375    -1.00833
H     -1.79289     2.59723    -0.79420
