 40
-1516.641993663307
O      1.18935     1.90338     0.30795
H      2.13452     1.70029     0.16241
O      0.63457     0.75466    -0.34189
H      0.52034     0.13377     0.41533
O      3.46292     0.66309    -0.27129
H      3.37982     0.05609    -1.02164
O      3.07049    -0.19405     0.80362
H      3.62859     0.11135     1.52680
O     -0.34223     1.74231     2.81555
H     -0.08220     1.91656     1.89672
O     -1.75451     1.89130     2.77276
H     -2.08367     0.97923     2.69650
O      0.50829    -0.76715     3.05686
H      0.19831     0.15026     3.19417
O      0.18097    -0.91932     1.67993
H     -0.73406    -1.26588     1.71696
O      2.01387    -1.76087    -2.93619
H      1.83942    -2.02692    -2.00877
O      2.94217    -0.68448    -2.76739
H      2.38288     0.04717    -3.08345
O     -1.65139    -1.10456    -1.25157
H     -1.31765    -0.72151    -2.09354
O     -2.60252    -0.15016    -0.79971
H     -2.08872     0.68067    -0.67352
O      0.68364     0.72860    -2.96590
H      0.59264     0.72756    -1.98631
O     -0.17462    -0.35183    -3.34414
H      0.48871    -1.07120    -3.39279
O     -2.49639    -1.35244     1.58708
H     -2.73241    -1.03441     0.68626
O     -3.15481    -0.39670     2.41114
H     -3.73629    -0.95896     2.92898
O      1.33208    -2.37220    -0.43406
H      1.34345    -2.11155     0.50159
O      0.10192    -3.08805    -0.55831
H     -0.50337    -2.38073    -0.84518
O     -1.61790     2.26482    -0.30894
H     -1.14386     2.93845    -0.80431
O     -2.53839     3.02871     0.47137
H     -2.25450     2.76235     1.36613
