 36
-1364.975700285113
O      3.16841     0.28175    -0.27425
H      3.92516     0.77691     0.04783
O      2.85422    -0.53667     0.84659
H      3.00649    -1.43143     0.46929
O      0.13086    -0.00383     2.11611
H     -0.76039     0.37181     2.32705
O      0.80270     1.08470     1.46424
H      1.62631     0.63641     1.19446
O     -1.00775     3.31833     0.08908
H     -0.23221     2.92837    -0.34565
O     -0.69053     3.26091     1.48030
H     -0.07960     2.49503     1.52540
O      1.19697     0.13989    -2.10456
H      2.00246     0.09474    -1.56526
O      0.59215     1.32568    -1.57751
H     -0.31870     1.01108    -1.41958
O     -0.86001    -1.24336    -3.08905
H     -0.00833    -0.87370    -2.78817
O     -0.69590    -2.60568    -2.70124
H     -1.21098    -3.05443    -3.37803
O     -1.91678     0.66011    -0.93503
H     -1.83287    -0.20407    -0.48413
O     -2.86526     1.37185    -0.13788
H     -2.43141     2.24378    -0.13792
O     -2.61504     2.09084     3.06464
H     -1.98419     2.64844     2.57691
O     -2.38049     0.81854     2.45862
H     -2.78634     0.93349     1.57675
O      3.05265    -2.94782    -0.28180
H      2.99401    -3.85437     0.03480
O      1.97725    -2.85552    -1.21126
H      1.24503    -2.53565    -0.63463
O      0.05116    -2.01528     0.39238
H      0.11205    -1.26830     1.03422
O     -1.23439    -1.82738    -0.20917
H     -1.08193    -2.22145    -1.09427
