 24
-909.9723989524958
O     -0.65048    -0.03165     1.76826
H     -1.41904     0.34271     1.30689
O     -0.76731    -1.42517     1.45567
H     -0.03676    -1.53281     0.81793
O     -0.66117    -1.32360    -2.39712
H     -1.07988    -0.44325    -2.30110
O     -1.57360    -2.10990    -1.61680
H     -1.98219    -2.65462    -2.29864
O      1.81113    -0.38922     2.80970
H      0.92336    -0.15978     2.47257
O      2.61505     0.49520     2.01655
H      3.43721     0.50048     2.51482
O     -2.02447     0.84386    -1.52556
H     -1.34019     1.44439    -1.16749
O     -2.58866     0.32778    -0.30860
H     -2.54806    -0.62336    -0.48547
O      1.78285    -0.10601    -0.44932
H      2.21274    -0.05029     0.43012
O      1.21557    -1.42291    -0.39797
H      0.69183    -1.44204    -1.22140
O      0.10121     1.95321    -0.37444
H      0.73101     1.19391    -0.41218
O      0.87495     2.98996    -0.97334
H      0.93832     3.60191    -0.23590
