 32
-1213.3056132031813
O      2.73554     1.71166     1.26179
H      3.06184     2.57278     1.54135
O      2.39912     1.98144    -0.09891
H      1.41519     1.95138    -0.06992
O     -2.34714     0.14241    -0.79043
H     -2.81253     0.00663     0.07270
O     -1.87581    -1.17430    -1.08842
H     -1.42276    -1.00067    -1.93404
O      0.68583    -1.35692    -3.27131
H      1.35690    -0.65668    -3.21158
O     -0.50764    -0.57805    -3.36642
H     -0.82994    -0.81272    -4.24237
O     -0.28178     1.70538    -0.09230
H     -1.03365     1.16239    -0.41354
O     -0.40229     1.55529     1.32827
H      0.09238     0.72894     1.47725
O      3.11284    -0.16009    -1.52394
H      3.01538     0.67825    -1.01938
O      2.84415     0.31306    -2.84339
H      3.65850     0.07108    -3.29288
O      0.21642    -1.93157     0.43649
H     -0.57952    -1.64378    -0.05829
O      1.05296    -0.76861     0.36791
H      1.58917    -0.93575    -0.42578
O     -1.43699    -1.49649     3.27824
H     -1.38703    -1.46060     4.23726
O     -0.14127    -1.00473     2.91800
H      0.08345    -1.60316     2.18102
O     -2.99832     1.28195     1.95179
H     -2.05713     1.43244     1.73921
O     -3.15682    -0.11129     1.68109
H     -2.54031    -0.53288     2.30724
