 24
-909.9787971893724
O     -2.33412    -1.30032     0.03873
H     -2.54720    -0.52029    -0.50080
O     -1.98093    -0.66225     1.26947
H     -1.14167    -1.11053     1.49195
O     -0.10952    -2.33459    -0.98796
H     -1.00222    -2.16609    -0.62096
O      0.39267    -1.00560    -1.04337
H     -0.17364    -0.55820    -1.69357
O      2.84234     0.20358    -1.08397
H      1.99122    -0.25170    -0.97725
O      2.78329     1.17763    -0.03932
H      3.14168     0.70617     0.72533
O     -1.22121     1.18830    -1.90154
H     -0.69317     1.64755    -1.21273
O     -2.47526     1.05684    -1.23271
H     -3.06554     1.51670    -1.83607
O      1.43305    -0.57231     1.86223
H      0.87186     0.21421     1.72822
O      0.47021    -1.63603     1.78441
H      0.69324    -2.03571     0.93010
O      0.32878     2.12222     0.06465
H      1.26272     1.80648     0.00749
O     -0.06484     1.58670     1.32999
H     -0.91602     1.16433     1.13878
