 32
-1213.3127316528391
O      0.84919    -4.04971    -0.89090
H      1.56215    -4.68111    -0.75272
O      1.53550    -2.80755    -0.73840
H      1.20362    -2.50622     0.14110
O      1.72665     2.84595     1.81635
H      0.79763     2.61111     1.99748
O      1.54099     3.48766     0.54075
H      1.91859     2.79214    -0.03148
O     -0.09841    -1.16404    -2.18684
H      0.62985    -1.70200    -1.81858
O      0.17615     0.11207    -1.59585
H     -0.72574     0.49368    -1.47195
O     -1.10519     3.14446     0.35123
H     -0.20180     3.47998     0.20675
O     -0.86413     2.35909     1.53808
H     -1.39452     1.57157     1.31155
O      2.31982     1.16061    -0.40408
H      1.53463     0.71730    -0.78506
O      2.49780     0.48055     0.84513
H      2.48066     1.25426     1.43993
O     -1.90094    -2.91869    -0.06798
H     -1.35040    -3.45395    -0.65410
O     -2.33588    -1.84206    -0.90456
H     -1.55840    -1.66898    -1.48306
O     -2.40833     0.64503     0.17123
H     -2.50076    -0.29747    -0.06269
O     -2.23713     1.22177    -1.13511
H     -2.04610     2.13371    -0.85500
O      0.04520    -0.57706     1.35937
H      0.96459    -0.28109     1.19588
O      0.19250    -2.00102     1.39968
H     -0.69582    -2.27997     1.12037
