 36
-1364.9744004991212
O      2.97001     1.12507     0.25880
H      2.59847     1.46822     1.09205
O      2.81346    -0.27947     0.43770
H      2.64554    -0.57949    -0.47566
O     -3.06699    -1.23236     0.71861
H     -2.53322    -1.86789     0.20293
O     -3.26067    -1.91260     1.96040
H     -2.34759    -2.03238     2.25993
O      1.78571     2.30858     2.41263
H      2.14992     2.99477     2.98029
O      1.20591     1.40557     3.35416
H      0.28175     1.44418     3.06775
O      2.34395    -1.36755    -1.97461
H      3.00177    -1.54509    -2.65443
O      1.26866    -0.82173    -2.72557
H      1.25979     0.10589    -2.41046
O      1.32618     1.68458    -1.74982
H      2.00748     1.64849    -1.04402
O      0.19751     2.15921    -1.01624
H     -0.53102     1.96463    -1.63667
O     -0.34766    -1.33317     2.38228
H     -0.55297    -0.49176     1.91508
O      0.63983    -1.87761     1.51384
H      1.30635    -1.17007     1.47316
O     -1.33582     0.47987    -3.68257
H     -2.14833     0.62223    -4.17717
O     -1.74615     0.86459    -2.37679
H     -1.65887     0.01397    -1.90250
O     -0.68785     0.98989     1.24368
H     -0.32012     1.42695     0.44120
O     -2.01602     1.49882     1.31317
H     -2.50709     0.66908     1.17570
O     -1.05490    -2.61933    -0.43322
H     -0.36764    -2.33898     0.21461
O     -1.06274    -1.53332    -1.35132
H     -0.36341    -1.76270    -1.98441
