 36
-1364.9799139231015
O      1.34530     1.59438     1.84295
H      0.87734     2.29380     1.34728
O      2.42063     1.27955     0.93689
H      2.72863     0.45577     1.36884
O     -3.77832     1.43581    -1.42286
H     -3.36626     0.92371    -0.70555
O     -3.25487     2.73327    -1.17504
H     -4.04755     3.23401    -0.95647
O      1.32538    -1.04741     3.03915
H      1.00304    -0.15487     2.85711
O      2.55230    -1.00015     2.29510
H      2.73827    -1.95735     2.19046
O      0.42898     1.47920    -1.78212
H     -0.32715     0.96130    -2.11941
O      1.34049     0.45675    -1.37460
H      1.74215     0.84752    -0.56543
O      0.05007    -1.84291    -0.84755
H      0.61109    -1.08407    -1.10352
O      0.52815    -2.12941     0.46566
H      0.07180    -1.43163     0.98424
O     -1.17630     2.40959     0.48739
H     -1.83977     2.67096    -0.17730
O     -0.04033     3.18958     0.13528
H      0.24064     2.71776    -0.67803
O     -2.06542    -0.46132    -0.03575
H     -1.55528    -1.11255    -0.55758
O     -1.10486    -0.19609     1.00623
H     -0.98947     0.77129     0.89600
O     -1.67224     0.39177    -3.01302
H     -2.56537     0.67978    -2.76993
O     -1.84092    -1.01474    -3.11500
H     -1.51700    -1.17035    -4.00626
O      2.93650    -3.63269     1.98873
H      2.47746    -4.26789     2.54779
O      2.47718    -3.97718     0.67734
H      1.76979    -3.30935     0.56298
