 32
-1213.3053374731835
O      2.07301     0.75700     2.38581
H      1.61056    -0.04224     2.04146
O      3.39922     0.56765     1.89312
H      3.83395     0.13170     2.63233
O     -1.51068    -2.23806    -1.31838
H     -0.67895    -1.84278    -1.63611
O     -1.70827    -1.43472    -0.14070
H     -2.68557    -1.41955    -0.05125
O     -1.84013     1.69673     0.57923
H     -1.03845     2.10415     0.96357
O     -1.25027     1.12057    -0.59335
H     -1.23853     0.16610    -0.34807
O      2.80967    -0.43498    -0.51921
H      3.22713     0.00386     0.24652
O      2.79762     0.58582    -1.51739
H      2.30843     1.31459    -1.08734
O      1.04917     2.39133    -0.42612
H      0.23849     1.97942    -0.78957
O      0.62387     2.57800     0.92806
H      1.21335     1.97868     1.41796
O     -0.08705    -0.02805    -3.25502
H     -0.83678     0.25137    -2.71264
O      0.62151    -0.84114    -2.32334
H      1.49943    -0.40972    -2.27442
O      0.61620    -2.46947     1.27664
H     -0.30871    -2.57289     1.02184
O      0.75624    -1.08504     1.01723
H      1.30545    -1.05565     0.20864
O     -4.24439    -0.78542     0.23214
H     -5.14523    -1.04659     0.44293
O     -3.78375    -0.25339     1.47245
H     -3.34619     0.54699     1.14998
