 24
-909.9859640011091
O     -2.18445    -1.54379    -0.42686
H     -2.26698    -0.79122    -1.04488
O     -2.38144    -0.86469     0.81735
H     -1.48144    -0.87674     1.19540
O      0.43237    -2.10959    -0.70943
H     -0.54170    -2.11785    -0.64381
O      0.61270    -0.95175    -1.53753
H      1.54051    -0.73288    -1.34947
O      2.77169     0.72064     0.17652
H      2.41936     0.09335     0.84553
O      3.11721    -0.19482    -0.86078
H      4.06956    -0.07010    -0.93247
O     -1.99716     0.95717    -1.31532
H     -1.03543     1.10697    -1.24494
O     -2.43062     1.62006    -0.11219
H     -2.65460     0.82899     0.41271
O      0.07573    -0.45221     1.87579
H      0.18882     0.46005     1.53675
O      1.33115    -1.05905     1.55241
H      1.06773    -1.60117     0.77627
O      0.37623     1.81471    -0.48950
H      1.30042     1.52909    -0.40005
O      0.05995     2.05092     0.89492
H     -0.88568     2.24823     0.78825
