 36
-1364.9703075458337
O      1.65771     1.02028    -1.91623
H      1.58949     1.33993    -2.82294
O      2.92487     1.54636    -1.49127
H      2.87997     1.25966    -0.55615
O      0.15855    -0.43867     2.42100
H     -0.39490    -0.97031     1.81081
O      0.90739    -1.43908     3.10708
H      1.77928    -1.24611     2.71927
O     -0.78006    -1.81707    -0.68912
H     -0.81705    -0.91091    -1.03888
O     -1.36409    -1.66917     0.60746
H     -2.20949    -1.22289     0.40383
O      1.86614    -2.15678    -0.57648
H      0.88544    -2.18412    -0.52563
O      2.09623    -1.63739    -1.88901
H      2.07823    -0.67307    -1.73934
O     -3.57820    -0.03579    -1.46563
H     -4.53679     0.03597    -1.49282
O     -3.32613     0.11068    -0.06720
H     -2.80271     0.93754    -0.04067
O     -0.50355     1.05781     0.00461
H      0.02478     1.42002    -0.72563
O     -1.49038     2.07095     0.19189
H     -1.33976     2.26718     1.13902
O      2.81596    -0.62009     1.37787
H      2.59991    -1.22452     0.63171
O      2.30776     0.63340     0.90963
H      1.35264     0.54199     1.07753
O     -0.97677     2.51256     2.77705
H     -0.40060     3.03474     3.34279
O     -1.35135     1.41821     3.62290
H     -0.74275     0.71463     3.30536
O     -0.12592    -0.80155    -3.80708
H      0.38604    -1.32648    -3.17358
O     -0.92683    -0.00506    -2.94241
H     -1.80854    -0.39073    -3.02797
