 24
-909.9813484727755
O     -1.82470    -1.73802    -0.00543
H     -2.55120    -1.24470    -0.41422
O     -1.74425    -1.06414     1.25599
H     -0.81991    -1.22739     1.50318
O      0.27243    -1.10612    -1.55541
H     -0.47270    -1.32419    -0.95660
O     -0.23516     0.02634    -2.27258
H      0.17811     0.74505    -1.75527
O      3.16067    -0.71222    -0.56986
H      2.27613    -0.83483    -0.94586
O      2.96583     0.40773     0.29181
H      2.77195    -0.00117     1.14831
O     -2.41692     1.50145    -0.66968
H     -2.76143     2.28488    -1.11223
O     -2.78594     0.45238    -1.56619
H     -1.91619     0.27732    -1.98859
O      1.21145     0.08090     2.56087
H      0.63762     0.58304     1.94969
O      0.73693    -1.24589     2.33520
H      0.73367    -1.59887     3.22949
O      0.77249     1.69289    -0.44551
H      1.62150     1.29547    -0.14258
O     -0.09273     1.44301     0.66834
H     -0.96310     1.39567     0.22611
