 20
-758.2975945466699
O      0.37314    -2.86363     0.98945
H     -0.31318    -3.53518     0.92609
O      0.03993    -2.19989     2.20871
H     -0.23286    -1.32899     1.88216
O     -0.64241     0.53457     1.06949
H      0.13896     0.54532     0.48470
O     -0.35642     1.58089     2.01127
H     -0.94549     2.26939     1.67343
O      0.75326    -0.99721    -0.91131
H      0.76850    -1.72187    -0.26049
O      1.83016    -0.18390    -0.42361
H      2.32193    -0.07357    -1.25518
O      2.66648     0.14641    -2.99140
H      2.49291     1.01945    -3.35936
O      1.71920    -0.66882    -3.69582
H      1.12488    -0.90558    -2.96938
O     -3.33871     1.77091     0.48924
H     -2.61273     1.13613     0.56754
O     -2.76553     2.89657     1.16808
H     -3.28530     2.92018     1.97823
