 24
-909.9781286093576
O     -1.63273    -1.14055    -2.21281
H     -2.16173    -1.05631    -1.40600
O     -1.06582    -2.44139    -2.01588
H     -1.27783    -2.87398    -2.84838
O     -0.54246     1.72064     2.48106
H      0.18023     1.06421     2.50591
O      0.16014     2.90122     2.10077
H      0.04609     3.45735     2.87738
O      1.34893    -2.02712    -0.86355
H      0.54232    -2.19512    -1.39528
O      2.23001    -1.41801    -1.80139
H      1.89294    -0.51022    -1.81019
O     -1.99586    -0.52244     0.52052
H     -1.13739    -0.84310     0.86008
O     -1.66964     0.82884     0.16505
H     -1.52888     1.23953     1.04170
O      0.45096    -1.20861     1.49146
H      0.90442    -1.60800     0.71511
O      1.36433    -0.17137     1.87021
H      1.61076     0.19940     1.00463
O      0.81274     0.94191    -0.74052
H     -0.15283     0.80009    -0.59672
O      0.87704     2.34292    -0.98286
H      0.57539     2.69024    -0.13416
