 40
-1516.6489044794198
O      1.46676     2.69332    -0.61632
H      2.37757     2.34507    -0.52675
O      1.39240     3.60234     0.48282
H      0.74602     3.13681     1.04800
O      1.62469    -0.16350    -1.64963
H      1.06993     0.50013    -2.09508
O      2.68315    -0.41302    -2.56608
H      3.42168    -0.06120    -2.04635
O     -3.90514    -0.36464     0.83815
H     -4.17143    -1.29359     0.91421
O     -3.62069    -0.32460    -0.57900
H     -2.77454     0.15054    -0.59267
O      0.17855     1.15506     2.68975
H     -0.51816     0.47275     2.77877
O     -0.44502     2.11872     1.82933
H     -0.76891     1.56498     1.08960
O     -1.06640     0.70531    -0.31595
H     -0.72985    -0.17741    -0.61783
O     -0.71352     1.51621    -1.43995
H      0.00602     2.07239    -1.04590
O      4.23006     0.54730    -0.25129
H      3.55278     0.31735     0.42158
O      4.02155     1.95117    -0.37100
H      4.63934     2.33187     0.26178
O      1.36825    -0.92684     0.87003
H      1.51200    -0.70229    -0.07451
O      2.26470    -0.00593     1.49621
H      1.63614     0.55253     2.00345
O     -1.65621    -0.74507     2.33576
H     -2.43179    -0.51298     1.78714
O     -1.04526    -1.78135     1.55817
H     -0.16262    -1.39849     1.34144
O     -3.17361    -3.00785     0.52711
H     -2.33183    -2.70413     0.92080
O     -2.83464    -3.00205    -0.86895
H     -3.33990    -2.23330    -1.17690
O     -0.51177    -1.72605    -1.28821
H     -1.19677    -2.41891    -1.16527
O     -0.41895    -1.63066    -2.71303
H      0.53459    -1.74782    -2.79716
