 40
-1516.647371960111
O      2.71765    -2.03077    -0.26004
H      1.92522    -2.12819    -0.80749
O      3.07114    -0.66350    -0.50402
H      2.80194    -0.26404     0.34820
O      0.98856     2.78707     0.63055
H      0.07659     2.70910     0.97563
O      0.77438     3.09550    -0.74240
H      1.45715     2.55157    -1.18441
O     -2.48176     1.50303     1.05149
H     -2.32030     1.84238     0.14348
O     -1.38412     2.08771     1.76160
H     -0.95694     1.29457     2.11937
O     -2.10389    -1.16917     2.25984
H     -2.62763    -0.43041     1.92096
O     -1.63941    -1.74103     1.03434
H     -0.77369    -2.14423     1.31982
O      2.01626     0.56066     1.62439
H      1.87532     1.48368     1.33291
O      0.66001     0.11593     1.67974
H      0.47004    -0.16753     0.74657
O      1.27111     0.54948    -2.80031
H      0.54121     1.18121    -2.89834
O      2.26676     1.34836    -2.14684
H      2.72056     0.65797    -1.62077
O     -1.44392     1.40355    -2.26006
H     -1.91430     0.65198    -1.83834
O     -1.74678     2.45922    -1.34224
H     -0.85513     2.83186    -1.19232
O      0.16694    -2.10790    -1.12755
H     -0.74198    -2.17880    -1.48436
O      0.11606    -0.71897    -0.77404
H      0.54629    -0.32532    -1.56675
O     -2.30048    -1.73094    -1.97343
H     -3.07610    -2.29753    -1.95115
O     -2.68248    -0.67951    -1.08698
H     -2.27873    -1.03014    -0.24732
O      0.91746    -2.36861     3.19721
H      0.62718    -1.44376     3.17715
O      0.67512    -2.75692     1.84388
H      1.54010    -2.66306     1.41147
