 36
-1364.9800614347919
O      3.70590     1.42550     1.45620
H      4.37733     1.49624     2.14135
O      3.06683     2.69720     1.51068
H      2.18541     2.45336     1.83305
O     -0.24234    -3.35249     0.69949
H     -0.24131    -3.08252    -0.24097
O      0.00927    -2.09461     1.34283
H      0.91094    -1.86899     1.04206
O      0.27243     0.88739     1.36025
H     -0.62341     0.62637     1.68320
O      0.19775     2.31033     1.33466
H      0.25949     2.46080     0.37587
O     -0.74077     1.31635    -1.19032
H     -0.96568     0.43471    -1.55802
O     -1.05862     2.21048    -2.25473
H     -0.17069     2.50020    -2.50118
O     -0.24814    -2.13938    -1.72286
H      0.48477    -1.53795    -1.49191
O     -1.35091    -1.22309    -1.68174
H     -2.05602    -1.77014    -1.27689
O     -2.15548    -0.10101     1.70840
H     -1.80172    -0.97989     1.48664
O     -2.91689     0.23097     0.54994
H     -2.35583     0.89666     0.11994
O      2.26270     2.12014    -2.11847
H      2.04633     1.22159    -1.82252
O      1.74817     2.91893    -1.05295
H      2.51111     3.03671    -0.46379
O      1.40362    -0.39435    -0.61501
H      0.83187     0.16537    -0.03116
O      2.27069    -1.02284     0.31696
H      2.62807    -0.25482     0.79107
O     -3.32280    -3.49376     0.64210
H     -2.37283    -3.66272     0.72303
O     -3.34388    -2.49690    -0.37821
H     -3.74332    -1.74146     0.07734
