 36
-1364.9729748835264
O      3.50236     1.46731     1.01917
H      2.91822     0.81199     1.45098
O      3.12253     1.34054    -0.35096
H      2.69175     2.19822    -0.50632
O     -0.91080    -2.18116     2.08367
H     -1.82441    -1.83178     2.15959
O     -1.09722    -3.40573     1.36992
H     -1.41431    -3.06705     0.51938
O      1.56561    -1.68117    -0.95749
H      1.68497    -1.70745     0.01640
O      1.24033    -0.30167    -1.11222
H      2.04438     0.17382    -0.78018
O     -1.14508    -1.75657    -1.05138
H     -0.19730    -1.95604    -1.19657
O     -1.67544    -1.68158    -2.36925
H     -1.47634    -0.76078    -2.59206
O      0.17245     1.33398    -2.91184
H      0.53029     0.58181    -2.39060
O     -1.09439     0.84407    -3.32572
H     -0.97669     0.78928    -4.27796
O     -3.15344    -0.15761     2.44939
H     -2.64351     0.36231     1.80227
O     -3.37929    -1.33150     1.66088
H     -4.21661    -1.65233     2.00836
O      0.23065     3.06038    -0.78713
H      0.08000     2.63584    -1.65141
O      1.57518     3.49949    -0.92660
H      1.50252     4.43245    -0.70456
O      1.61909    -1.40556     1.68668
H      0.73312    -1.73218     1.96197
O      1.64895    -0.08667     2.22786
H      0.82899     0.30991     1.87955
O     -1.56632     0.85563     0.51314
H     -1.29543     0.00514     0.11722
O     -0.37834     1.29469     1.15288
H     -0.06119     1.97752     0.52643
