 32
-1213.3175757618187
O      3.97238    -0.24664    -0.57286
H      3.55571    -0.78712     0.12481
O      3.15963     0.92737    -0.49714
H      3.81709     1.62755    -0.43151
O     -0.78492    -2.11588    -0.60892
H     -0.78333    -1.71576     0.28348
O      0.59538    -2.13287    -0.96853
H      0.70158    -1.27873    -1.43624
O     -2.80239    -0.80709    -1.82608
H     -2.05696    -1.32054    -1.45405
O     -2.11295     0.08553    -2.69567
H     -2.32438    -0.25892    -3.56994
O      0.70737     1.75586     1.06024
H      0.34776     1.57163     0.16698
O     -0.45608     2.20864     1.76155
H     -0.60583     1.44237     2.34724
O      1.03517     0.31910    -1.97768
H      1.82425     0.64362    -1.49328
O      0.01484     1.15779    -1.43174
H     -0.78649     0.82106    -1.88440
O      1.58719    -0.91687     1.85585
H      1.68113    -0.05028     1.43187
O      2.36837    -1.77255     1.02950
H      1.70835    -2.08789     0.37745
O     -1.36239    -0.86845     1.69980
H     -2.03523    -0.21312     1.40156
O     -0.79761    -0.22327     2.84115
H      0.10191    -0.58494     2.78828
O     -3.11056     0.74623     0.54823
H     -3.37663     0.29614    -0.26775
O     -2.51084     1.92954     0.00327
H     -1.85583     2.14680     0.69428
