 32
-1213.3092173172804
O      3.11882     1.30169     1.75082
H      4.06863     1.40336     1.62863
O      2.91331    -0.08873     1.49820
H      2.60910    -0.07949     0.56219
O     -1.24625    -1.50335    -1.53334
H     -0.27284    -1.59538    -1.59055
O     -1.62440    -2.64281    -0.75272
H     -1.21015    -2.43247     0.09624
O      1.82379     2.85685    -0.84847
H      1.04387     3.05482    -1.38140
O      1.22348     2.70113     0.43760
H      1.95436     2.27469     0.92645
O      0.20601     0.82723    -2.65869
H     -0.29449     0.46218    -3.39842
O     -0.60060     1.91489    -2.21059
H     -1.07822     1.50506    -1.45721
O      1.88873    -0.28685    -0.94229
H      1.27451     0.20191    -1.53252
O      1.41556    -1.63003    -1.05186
H      1.12687    -1.76959    -0.13059
O     -1.80323     1.05339     0.02967
H     -2.40623     0.35662     0.36677
O     -0.76702     0.99890     1.01895
H     -0.14343     1.70665     0.73330
O      0.21236    -1.42879     1.27144
H     -0.19236    -0.52941     1.17779
O      0.46015    -1.52337     2.66277
H      1.34690    -1.14026     2.71059
O     -3.25545    -0.88739     1.13650
H     -3.73099    -1.09692     1.94648
O     -4.05943    -1.50093     0.12288
H     -3.38186    -2.04686    -0.30634
