 32
-1213.3118744019182
O      3.20052    -0.33386     1.35096
H      2.68346     0.08460     0.63064
O      3.06301    -1.72008     1.02795
H      3.92812    -1.92192     0.65265
O      0.31033    -2.05603     0.27129
H      1.02295    -2.22519     0.90514
O     -0.86088    -2.46234     0.97188
H     -1.20382    -1.61250     1.31326
O     -1.38103     2.71900    -0.53134
H     -1.15861     2.11056     0.19881
O     -0.09793     2.83730    -1.16260
H     -0.33620     2.71455    -2.09670
O      0.77108    -1.55664     3.44336
H      0.52166    -1.48334     4.36945
O      0.95644    -0.18500     3.10526
H      1.89159    -0.17304     2.83900
O     -0.78160     0.71011    -3.04960
H      0.03209     0.43683    -2.57419
O     -0.34887     1.91209    -3.67976
H     -0.96415     1.95250    -4.41659
O      1.60648     0.93490    -0.44958
H      0.98403     1.68167    -0.62050
O      1.07772    -0.06192    -1.32935
H      0.72412    -0.73466    -0.70806
O     -0.80090     0.88526     1.31863
H     -0.17300     0.45852     1.93482
O     -1.93297     0.01258     1.39922
H     -2.29305     0.08504     0.48773
O     -2.59579    -1.49383    -1.50309
H     -2.04142    -1.88071    -0.81088
O     -2.60198    -0.10956    -1.15381
H     -2.06298     0.27484    -1.86801
