 36
-1364.973469345358
O      2.45669     1.61119    -0.77016
H      2.29556     1.61601     0.18328
O      1.57015     0.56816    -1.15785
H      2.19449    -0.14614    -1.42188
O     -1.24195     2.00553     0.77536
H     -1.45798     1.04975     0.63404
O     -2.27200     2.62764     0.01960
H     -2.03214     2.33923    -0.87457
O     -2.47503     0.79569     3.79936
H     -2.87633     1.12494     4.61089
O     -1.35017     1.65457     3.64918
H     -1.59943     2.15080     2.85438
O     -0.42555     0.75353    -2.92682
H      0.28786     0.81268    -2.25228
O     -1.61602     1.05855    -2.20897
H     -1.72560     0.27640    -1.64708
O     -0.66289    -1.92694    -3.08254
H     -0.62180    -0.96973    -3.28456
O      0.55931    -2.07027    -2.35213
H      1.13658    -2.54554    -2.96149
O     -1.83606    -0.50328     0.38493
H     -1.15241    -1.22057     0.46108
O     -2.88876    -0.97399     1.22508
H     -2.71205    -0.45827     2.02061
O      1.14798     1.69788     1.92285
H      0.36988     2.00757     1.41779
O      0.69193     0.40104     2.30930
H      0.07992     0.61648     3.03640
O      3.40143    -1.28330    -1.72789
H      4.32261    -1.06666    -1.54476
O      3.23438    -2.52294    -1.04173
H      2.63152    -2.23688    -0.32493
O      1.39944    -1.73068     0.75849
H      1.13198    -0.91972     1.23728
O      0.15916    -2.24753     0.26589
H      0.31975    -2.24857    -0.70481
