 36
-1364.972502140531
O     -2.73490    -0.85577     0.91976
H     -3.14291    -0.87721     0.03566
O     -1.48225    -1.47872     0.58959
H     -1.26973    -1.95028     1.40950
O      1.08974    -3.07146     1.71010
H      1.75316    -3.50463     2.25580
O      0.39552    -2.25134     2.64963
H      0.67058    -1.36322     2.33473
O      0.65309     3.91201    -0.02118
H      0.78079     4.79237     0.34635
O      1.89395     3.28231     0.27629
H      1.69219     2.77691     1.08153
O      0.90350     0.06319     1.53448
H      0.16975     0.71825     1.44974
O      2.00084     0.88647     1.93181
H      2.57959     0.70569     1.16620
O     -0.65346     0.58522    -1.39112
H     -0.54389    -0.08603    -0.69224
O      0.09622     0.01656    -2.46564
H      0.96057     0.44925    -2.30748
O     -2.32381     1.82396     1.30716
H     -2.41698     0.86055     1.20597
O     -0.90340     1.97264     1.28425
H     -0.77827     2.52786     0.49968
O      0.61959    -2.51439    -1.61758
H      0.36015    -1.70338    -2.09489
O      1.56073    -1.97987    -0.68273
H      1.26588    -2.37842     0.15982
O      2.25386     1.19222    -1.46548
H      2.10704     1.99538    -0.93984
O      2.85418     0.31719    -0.50669
H      2.37088    -0.52563    -0.65999
O     -3.28593    -0.50446    -1.72652
H     -2.44369    -0.07156    -1.94441
O     -3.20745    -1.72580    -2.45663
H     -3.88521    -1.58930    -3.12376
