 28
-1061.6430145996094
O      0.96266    -1.50710    -0.46708
H      1.46831    -1.23171     0.31892
O      1.76147    -0.93520    -1.50686
H      1.22595    -1.14628    -2.30077
O     -0.61972     1.13333     1.91538
H     -1.53654     0.81103     2.07013
O      0.03732     0.79372     3.14337
H      0.76693     0.26867     2.79629
O      1.40453     1.80586     0.38478
H      0.56273     1.58817     0.84051
O      1.06503     1.57773    -0.98260
H      0.35541    -1.67171    -4.56095
O     -1.49801    -0.48270    -0.40716
H     -0.62656    -0.92719    -0.41758
O     -1.35955     0.46618    -1.46969
H     -0.57393     0.98589    -1.19992
O     -3.51370     0.64064     1.02772
H     -2.93597     0.14476     0.42367
O     -3.05120     0.10150     2.27322
H     -3.77461     0.32449     2.86601
O     -0.96667    -1.49900    -3.23845
H     -1.14738    -0.71463    -2.68082
O      0.33405    -1.16423    -3.74455
H      1.53801     0.74210    -1.16812
O      3.27986     0.09849     1.25116
H      2.69658     0.80879     0.91334
O      2.28108    -0.79539     1.75343
H      2.78186    -1.31330     2.38976
