 40
-1516.6449742520329
O     -2.14752     1.43074    -0.58772
H     -2.58282     1.36977     0.28672
O     -1.19480     2.47867    -0.33529
H     -0.61293     2.35467    -1.10021
O      0.74852    -0.43469     3.46687
H      0.25859    -1.05927     2.89635
O      1.95725    -0.23267     2.73843
H      1.70632     0.49889     2.15055
O      2.69986    -1.62667     0.44502
H      2.53361    -1.27023     1.33561
O      1.72266    -2.67131     0.38533
H      1.42186    -2.61820    -0.53448
O      0.08229     2.62527     2.48869
H     -0.34223     2.57782     1.61829
O     -0.76393     1.78522     3.26866
H     -0.16942     1.03564     3.49383
O     -2.90287    -0.23845     2.19389
H     -3.62478    -0.37233     2.81430
O     -2.95341     1.16950     1.95917
H     -2.19331     1.47573     2.52288
O      2.00885     1.00804    -0.80413
H      2.52180     0.18143    -0.82048
O      1.06029     0.74595     0.21786
H      0.41470     0.14030    -0.19615
O     -0.38688     1.38886    -2.85808
H      0.26432     0.99271    -3.47497
O     -1.48247     0.46380    -2.96182
H     -2.04307     0.82131    -2.24668
O      0.17889    -1.28007    -1.87157
H     -0.56868    -0.77253    -2.27981
O     -0.37737    -2.56699    -1.59776
H     -0.85818    -2.34527    -0.77794
O     -0.48127    -1.99847     1.66120
H      0.32718    -2.34799     1.21977
O     -1.07895    -1.28387     0.57237
H     -1.85627    -0.90047     1.02379
O      2.23632    -0.59715    -3.49606
H      1.54748    -0.92453    -2.89081
O      1.40176     0.11958    -4.41984
H      2.05823     0.51702    -4.99981
