 40
-1516.6361354206447
O     -0.46479     3.56317    -1.68583
H      0.35631     3.06174    -1.54644
O     -0.88641     3.01131    -2.92667
H     -1.23233     3.78869    -3.37107
O      0.69260    -4.10228     0.94407
H      0.49637    -4.66442     1.69811
O     -0.35773    -3.14436     1.05506
H     -0.29046    -2.68919     0.18760
O     -1.34041     0.17052     2.92710
H     -2.07603     0.15037     2.27888
O     -0.29701    -0.41050     2.15726
H     -0.65060    -1.28796     1.93677
O     -1.09432     2.48271     0.81699
H     -1.19611     3.24921     0.23412
O     -0.89798     3.06760     2.10581
H     -1.00179     2.27118     2.64505
O     -2.65380    -1.36987     0.18818
H     -2.90780    -1.22983    -0.73732
O     -2.92653    -0.09581     0.79097
H     -2.61055     0.52504     0.10440
O      0.89831    -1.66655    -2.11093
H      1.75376    -1.30098    -1.81413
O      0.07703    -1.51083    -0.96150
H      0.24520    -0.57450    -0.70364
O      3.33562     0.03336    -0.38833
H      2.88968    -0.60353     0.21932
O      3.42553    -0.73577    -1.58613
H      4.12455    -1.36351    -1.37991
O      0.69462     0.97696    -0.39212
H      0.09687     1.45900     0.22486
O      1.58732     2.03239    -0.79070
H      2.42642     1.56073    -0.64193
O      2.30637    -1.92822     1.01924
H      1.80266    -2.76663     1.04764
O      2.21789    -1.44048     2.36037
H      1.37158    -0.96083     2.32766
O     -2.02911     1.03993    -1.49551
H     -1.64926     1.74131    -2.06037
O     -2.06281    -0.09491    -2.37711
H     -1.21921    -0.53059    -2.17921
