 36
-1364.9738686265023
O      2.58993     1.04198     1.23167
H      2.58519     0.07275     1.02881
O      3.61748     1.53727     0.38150
H      4.34626     1.65585     0.99743
O     -2.64474    -1.46424     0.17596
H     -2.87192    -0.85620    -0.55637
O     -3.11436    -0.75066     1.31964
H     -2.27502    -0.44555     1.71603
O     -0.91289     0.29408     2.41403
H     -0.56191     1.06010     1.90969
O      0.22555    -0.56983     2.40646
H      0.41293    -0.63051     3.34603
O      3.77081    -0.23949    -1.66438
H      3.72240     0.49960    -1.03445
O      2.60039    -0.01402    -2.44417
H      1.99683    -0.69924    -2.12392
O      0.16577     2.09489     0.78482
H      1.10157     1.81155     0.82018
O     -0.29206     1.51458    -0.43296
H     -1.25305     1.63387    -0.30570
O     -4.01640     1.63871     0.43844
H     -3.88249     0.74843     0.82009
O     -2.66602     2.09266     0.44112
H     -2.67958     2.81323     1.08005
O     -0.06117    -0.93949    -1.41916
H     -0.05301    -0.04497    -1.01311
O     -0.03678    -1.78212    -0.26706
H     -0.96922    -1.74122     0.04219
O     -2.74380     0.18272    -1.86340
H     -3.31263     0.74488    -2.40007
O     -2.37889    -0.87015    -2.75996
H     -1.46326    -1.00355    -2.45428
O      3.34525    -2.37736    -0.10459
H      3.64785    -1.71811    -0.75731
O      2.49409    -1.54359     0.68576
H      1.60353    -1.83823     0.40716
