 16
-606.6406429140343
O     -2.25667    -0.83702     1.48716
H     -2.92046    -1.53180     1.53400
O     -1.40617    -1.34089     0.44627
H     -1.42949    -0.58585    -0.17100
O      1.43699     0.44970     1.53542
H      0.72277     0.95730     1.11500
O      1.38546    -0.79743     0.84009
H      0.46736    -1.08521     0.96662
O      1.23916    -0.55180    -2.43704
H      1.91303    -0.34942    -3.09288
O      1.49397     0.47184    -1.47163
H      1.71772    -0.06029    -0.67377
O     -1.02246     1.08255    -0.73551
H     -0.12216     0.99390    -1.11045
O     -0.72821     1.77985     0.48806
H     -1.40506     1.40927     1.06687
