 32
-1213.3171674403463
O      1.93148     0.19679     2.60837
H      1.84471    -0.60546     2.05768
O      2.34040     1.18244     1.66277
H      1.71412     1.88970     1.90007
O      1.17401    -2.00818     1.27523
H      0.20690    -1.87707     1.33887
O      1.32560    -2.43327    -0.07756
H      1.44448    -1.58637    -0.53857
O      0.05788     0.93412    -3.52237
H      0.12154     1.28727    -4.41451
O     -1.32267     0.60959    -3.41714
H     -1.58983     1.18738    -2.68459
O     -1.83293     1.39390    -0.69488
H     -2.14944     0.83398     0.04606
O     -0.53724     1.74636    -0.19564
H      0.02922     0.99518    -0.46650
O      1.24626     0.05669    -1.26488
H      1.03913     0.34267    -2.17485
O      2.48030     0.72686    -1.01289
H      2.39635     0.89362    -0.05501
O     -2.18349    -0.17960     1.42269
H     -1.66712     0.21929     2.15516
O     -1.43533    -1.35695     1.12900
H     -1.60602    -1.43541     0.16474
O     -1.13509    -2.89785    -1.73686
H     -0.34623    -2.94417    -1.17719
O     -1.56409    -1.55899    -1.49041
H     -1.42317    -1.10833    -2.33834
O     -0.50831     1.08354     3.09197
H      0.32450     0.59093     3.20382
O     -0.00577     2.20974     2.36338
H     -0.40925     2.09327     1.47911
