 24
-909.9785879388583
O     -2.25512    -1.87773     0.61229
H     -1.92873    -0.99340     0.86372
O     -1.36367    -2.67293     1.41095
H     -1.95770    -3.02063     2.08769
O     -0.60263    -1.74324    -1.73488
H     -1.26253    -1.96037    -1.05658
O      0.60727    -2.20644    -1.11460
H      1.22048    -1.48336    -1.31297
O      2.22860     0.76307     0.10426
H      1.69266     0.10766     0.59920
O      2.15896     0.27307    -1.23380
H      1.33037     0.68538    -1.54738
O     -0.31798     0.88430    -2.02173
H     -0.57545    -0.06281    -2.03145
O     -1.30265     1.43898    -1.14169
H     -0.90372     2.30033    -0.96567
O     -0.64851     0.04845     1.52940
H     -0.31025     0.96500     1.46494
O      0.57120    -0.71141     1.61063
H      0.21267    -1.60068     1.46325
O      0.75432     2.97487     0.25797
H      1.39730     2.24033     0.13112
O      0.17023     2.58254     1.50094
H      0.69181     3.06559     2.15083
