 32
-1213.3109848483625
O      2.35855    -0.74792     0.25597
H      2.19331    -0.13569    -0.49360
O      1.76352    -0.04021     1.34564
H      0.79785    -0.22370     1.23026
O     -2.44755    -3.46561    -1.06459
H     -3.09479    -4.04330    -0.65021
O     -2.53063    -2.32199    -0.21438
H     -2.34244    -1.61156    -0.85855
O     -1.67761    -0.25848    -1.64466
H     -1.41241     0.51608    -1.11691
O     -0.47064    -0.60154    -2.32484
H     -0.20916    -1.43407    -1.87282
O     -1.32782     2.58772     1.31118
H     -0.36423     2.47724     1.30490
O     -1.68347     2.20736    -0.00873
H     -1.68644     3.04268    -0.49150
O      1.67957     2.58041     1.72057
H      1.83278     1.61114     1.63384
O      2.61606     3.10709     0.78874
H      3.37967     3.30619     1.34144
O      0.61589    -2.80900     0.31487
H      1.37709    -2.19789     0.25057
O      0.16663    -2.84763    -1.04502
H     -0.67503    -3.32386    -0.93846
O      1.01770     2.13799    -1.14526
H      1.73754     2.47190    -0.58141
O      1.61224     0.94534    -1.67065
H      0.82546     0.49650    -2.04215
O     -1.33773     0.00211     2.52625
H     -1.82343     0.79956     2.27510
O     -0.85287    -0.38888     1.23896
H     -1.27717    -1.25410     1.08919
