 40
-1516.6411025295313
O      2.47953    -1.81881    -0.97425
H      1.77408    -2.21004    -1.52893
O      1.89367    -0.55589    -0.65666
H      1.25045    -0.76854     0.04964
O     -3.04694     0.33219     1.87269
H     -2.80314     1.21073     2.19624
O     -3.20447     0.67765     0.48496
H     -3.00405    -0.17140     0.03911
O      0.92863     2.95962     0.50024
H      1.57653     2.70905    -0.19414
O      1.53761     2.45404     1.68304
H      1.07859     1.60829     1.78462
O      0.32426    -1.20362     1.44040
H      0.84411    -1.77284     2.04294
O     -0.14377    -0.15737     2.29224
H     -1.10099    -0.24016     2.15984
O     -1.51435     2.58963     1.43234
H     -0.66157     2.95397     1.10612
O     -2.47964     3.43816     0.78923
H     -2.95122     2.77190     0.27129
O     -0.77749     1.08227    -1.07677
H     -1.22534     1.29044    -0.23408
O     -1.03828     2.24479    -1.85265
H     -0.13165     2.51955    -2.04587
O     -1.68735    -1.25092    -1.89139
H     -1.35240    -0.34670    -1.69337
O     -2.32406    -1.55785    -0.63978
H     -1.67169    -2.16500    -0.25132
O      0.26173    -3.03497    -1.86813
H     -0.41139    -2.38536    -2.16013
O     -0.32040    -3.37351    -0.59666
H      0.46654    -3.58530    -0.07784
O      1.98653    -3.52174     1.04397
H      2.47243    -2.89382     0.47625
O      2.17346    -2.92580     2.32066
H      2.36593    -3.69424     2.86308
O      2.53698     1.99494    -1.44973
H      2.37781     1.03910    -1.33629
O      2.00193     2.23705    -2.74709
H      2.73897     2.69179    -3.16296
