 32
-1213.3075433866652
O      2.80020     0.41741    -1.69449
H      2.60972     1.08349    -1.01055
O      2.31659    -0.78772    -1.10365
H      1.41880    -0.83908    -1.47430
O      1.46534    -1.36672     1.34707
H      1.95356    -1.29077     0.49888
O      0.84432    -0.08869     1.38209
H      0.21808    -0.12723     0.63369
O     -0.53604    -1.58826    -0.68585
H     -0.86882    -2.21234    -0.01095
O     -1.76668    -1.03701    -1.19528
H     -1.39768    -0.49711    -1.91643
O      2.09367     2.40210     0.01306
H      2.50548     3.27030    -0.01403
O      2.67061     1.83689     1.20187
H      2.06243     1.07626     1.31039
O     -1.46833    -2.97375     1.43035
H     -2.39743    -2.69004     1.43146
O     -0.94296    -2.02417     2.37786
H     -0.00650    -1.96912     2.11196
O      0.06352     0.51656    -2.44092
H     -0.14816     1.26039    -1.85460
O      0.84937     1.11916    -3.46344
H      1.73504     0.89850    -3.13331
O     -0.66949     1.76218    -0.21530
H      0.04897     2.22553     0.24621
O     -1.83559     2.47086     0.20143
H     -2.23449     1.80482     0.78024
O     -2.61726     0.01822     1.85463
H     -1.92301    -0.55872     2.22179
O     -3.33271    -0.93900     1.05469
H     -2.91299    -0.82064     0.18562
