 28
-1061.6344247814782
O      0.48364    -2.80681    -0.65016
H      0.74939    -2.22201     0.09464
O     -0.73507    -3.36643    -0.15586
H     -0.51980    -4.30160    -0.19965
O     -1.26550    -0.51786     2.63499
H     -1.24662     0.44701     2.73577
O     -1.27518    -0.95342     3.99901
H     -2.15166    -1.34517     4.05753
O      1.02215    -1.00764     1.25369
H      0.22078    -0.97046     1.81162
O      0.92045     0.27792     0.61948
H      3.44698     0.05590    -1.89147
O     -0.48516     2.23931     2.23954
H      0.13554     1.87833     1.58608
O     -1.58198     2.62591     1.41276
H     -1.41852     3.56339     1.26937
O     -0.99372     1.78744    -1.15635
H     -1.31061     1.81735    -0.24110
O      0.12805     2.68140    -1.08863
H      0.79511     2.16098    -1.56395
O      1.84819     0.92863    -2.37239
H      1.25157     0.17634    -2.62586
O      2.65635     0.28195    -1.39128
H      1.51249     0.18423    -0.15266
O     -1.07720    -0.66458    -2.86814
H     -1.04522     0.14978    -2.34380
O      0.27160    -1.11232    -2.78818
H      0.24008    -1.78134    -2.07322
