 24
-909.9737746257921
O     -2.14174    -1.94966    -0.08166
H     -1.36912    -1.76418    -0.64586
O     -2.26019    -0.72379     0.65633
H     -1.88360    -0.96301     1.51928
O      1.19444    -1.55803    -0.61116
H      0.76578    -1.63794     0.26291
O      0.09490    -1.26698    -1.46904
H     -0.03128    -0.31321    -1.32512
O      2.73633     0.45587    -1.53438
H      2.36109    -0.39612    -1.24856
O      3.32723     0.88941    -0.30210
H      4.01265     1.48462    -0.61628
O     -2.70807     1.93674    -1.39305
H     -2.94536     1.57741    -2.25267
O     -1.55891     1.15104    -1.08107
H     -1.91435     0.55514    -0.38212
O     -0.12969    -0.52234     2.49174
H      0.25510     0.09026     1.82720
O      0.10867    -1.76950     1.82949
H      0.26553    -2.35690     2.57663
O      0.84755     1.03838     0.59806
H      1.77200     1.20558     0.32008
O      0.30885     2.34763     0.82159
H     -0.33198     2.36994     0.09782
