 24
-909.9781710180496
O     -2.32864    -0.64931     0.02054
H     -1.58187    -1.27115     0.09736
O     -2.14022     0.18871     1.16066
H     -1.78097     1.00099     0.76741
O     -1.90059     0.81177    -2.23672
H     -2.13145     0.28956    -1.44774
O     -0.47653     0.83076    -2.17858
H     -0.24924    -0.11081    -2.08690
O      2.17349    -0.30618     0.31709
H      1.72016     0.53291     0.05045
O      2.97646    -0.56845    -0.82895
H      3.85443    -0.39224    -0.47823
O     -0.05602    -2.09332    -0.28645
H      0.77512    -1.79082     0.11836
O      0.15793    -1.73042    -1.64743
H      0.13778    -2.58607    -2.08938
O     -0.02829    -0.77301     2.50713
H     -0.84721    -0.39098     2.13872
O      0.76224     0.40644     2.70275
H      1.58022     0.12338     2.27293
O      0.84190     1.92007    -0.14565
H      0.27204     1.75211    -0.93011
O     -0.11973     2.18563     0.88151
H      0.25205     1.66970     1.62163
