 36
-1364.977506255963
O      1.28513     2.60974    -1.28358
H      1.47071     3.01511    -0.42626
O      2.45151     1.80220    -1.46120
H      2.06783     0.98550    -1.81377
O     -1.54873    -3.63007    -0.22389
H     -1.98112    -4.48099    -0.34635
O     -1.15657    -3.29270    -1.55291
H     -1.77619    -2.55674    -1.74040
O      3.00011     0.98523     1.04375
H      2.99025     1.26104     0.10692
O      2.88219    -0.43150     0.91336
H      2.10633    -0.62352     1.48227
O      0.19228    -2.20995     1.88479
H      0.19863    -2.75365     2.68092
O      0.70788    -0.98089     2.38834
H     -0.05884    -0.38472     2.22773
O     -2.50592     2.16123    -1.07168
H     -2.36216     1.36353    -1.62016
O     -1.38893     2.06709    -0.19818
H     -0.63250     2.07626    -0.80830
O     -2.50914    -0.95942    -1.67586
H     -2.56368    -0.77641    -0.71457
O     -1.50169    -0.05585    -2.11854
H     -0.68008    -0.40195    -1.71172
O      0.68969     3.28642     1.44595
H     -0.23015     3.29305     1.15221
O      0.72438     1.99768     2.07945
H      1.62936     1.70162     1.86209
O      0.69896    -1.11930    -1.04463
H      0.46958    -2.06599    -1.06981
O      2.03858    -1.07181    -1.53153
H      2.50621    -0.95314    -0.67912
O     -2.34230    -0.97407     0.97008
H     -1.73898    -1.72974     1.04636
O     -1.53738     0.06523     1.51998
H     -1.59932     0.78675     0.85664
