 24
-909.9814353113715
O     -1.52906    -0.37390     1.31885
H     -1.96305     0.19190     0.65146
O     -1.84759    -1.68767     0.84316
H     -1.01557    -2.13410     1.08885
O     -1.16470    -1.17853    -1.73861
H     -1.43852    -1.48807    -0.85418
O      0.24003    -0.99738    -1.53458
H      0.29725    -0.02805    -1.40911
O      3.23744     0.93288     0.15841
H      4.05264     1.42974     0.03908
O      3.40430     0.42308     1.48825
H      2.59168    -0.10909     1.56142
O     -2.88350     1.10055    -0.43511
H     -3.82805     0.98353    -0.57932
O     -2.37129     1.25007    -1.75401
H     -1.98310     0.36247    -1.89194
O      1.02006    -0.87530     1.69972
H      0.16252    -0.41502     1.61344
O      0.78316    -2.03453     0.89909
H      0.79895    -1.66526    -0.00431
O      0.43290     1.61271    -1.10983
H     -0.41991     2.06125    -1.20498
O      0.74205     1.85222     0.26957
H      1.69614     1.63002     0.27884
