 36
-1364.9777712919145
O      1.75760     2.01813     0.09723
H      0.91519     2.02290     0.60303
O      1.57558     0.88444    -0.76330
H      0.72716     1.08115    -1.22247
O     -1.70156    -2.31390     1.76415
H     -0.79978    -2.30921     2.13964
O     -2.37998    -1.29373     2.50293
H     -2.09483    -0.49951     2.01950
O      0.87884    -0.92021     2.06167
H      1.80749    -0.61391     1.98393
O      1.01232    -2.33738     1.93536
H      1.23180    -2.40958     0.98455
O      1.65093    -2.04406    -0.64661
H      2.02388    -1.14916    -0.62994
O      0.80055    -1.95658    -1.79123
H     -0.08183    -2.08058    -1.39211
O     -0.74766     1.03820    -2.04067
H     -1.43791     0.46594    -1.63848
O     -0.45079     0.34957    -3.24193
H      0.06518    -0.40129    -2.90265
O     -1.06192     0.51883     0.99266
H     -0.25371     0.05060     1.30237
O     -0.67554     1.87700     1.17397
H     -1.25054     2.32261     0.52190
O     -1.30404     3.79993    -1.61785
H     -1.21804     3.06464    -2.24214
O     -2.18529     3.18648    -0.67110
H     -2.83972     3.87708    -0.53086
O      4.14122    -0.47670     0.76275
H      4.93283    -0.45497     1.30692
O      3.24503     0.28016     1.56381
H      3.00018     1.02441     0.97798
O     -2.39590    -0.86774    -1.22048
H     -3.09639    -1.21121    -1.78138
O     -1.70655    -2.06758    -0.87655
H     -1.82499    -2.10229     0.10616
