 32
-1213.3109423294225
O      1.48466    -2.56673     0.80565
H      2.18879    -1.94446     0.54655
O      1.63674    -2.64838     2.21958
H      1.92483    -3.56100     2.32084
O      3.27418    -0.89075    -0.73660
H      2.77591    -1.11448    -1.54379
O      3.14456     0.53287    -0.77805
H      2.58528     0.71384     0.00572
O     -3.31204    -0.96819     1.16564
H     -2.53332    -1.39797     0.75643
O     -3.54694     0.07441     0.21694
H     -4.41784    -0.15128    -0.12203
O     -0.35065     2.56666    -0.64737
H     -1.12058     2.68788    -0.06265
O     -0.91175     1.63935    -1.58138
H     -0.11981     1.39523    -2.10249
O      1.29720     1.23349     1.04929
H      0.77322     1.77629     0.42951
O      0.41996     0.11325     1.23428
H     -0.34058     0.53047     1.67322
O      1.35292     0.69875    -2.70928
H      2.08995     0.91603    -2.10200
O      1.37847    -0.72876    -2.59058
H      0.59065    -0.91029    -2.03981
O     -0.76447    -1.23264    -1.10263
H     -1.10002    -0.35151    -0.86541
O     -1.05512    -1.98977     0.06933
H     -0.15555    -2.15264     0.42932
O     -1.56210     1.63560     2.22823
H     -1.45923     2.35417     2.85961
O     -2.29589     2.26787     1.18024
H     -2.85346     1.52220     0.88579
