 40
-1516.64088787687
O      1.02493    -1.04816    -2.30441
H      1.37929    -1.54010    -1.52865
O      2.18310    -0.39550    -2.79552
H      2.13675     0.44579    -2.31872
O     -0.57025    -1.58479     0.87332
H     -0.48569    -2.51350     0.60306
O     -1.90742    -1.24148     0.52127
H     -1.78706    -0.89386    -0.38728
O      0.66963     2.43976     3.63897
H      0.96220     3.26053     4.04421
O      1.74810     2.17251     2.74577
H      1.68231     1.19278     2.67837
O     -1.40347    -0.00673    -1.83984
H     -0.53552    -0.34794    -2.13989
O     -1.05027     1.32948    -1.45390
H     -1.93708     1.71410    -1.26491
O     -0.85965     2.09438     1.43101
H     -0.42097     2.25261     2.28971
O     -2.08216     1.46242     1.82485
H     -1.97968     0.58499     1.42692
O      1.43928     1.28010    -0.44447
H      0.48535     1.36729    -0.69936
O      1.85460     2.60892    -0.17474
H      1.80397     2.60492     0.79240
O     -3.24282     3.08964     0.04918
H     -2.91310     2.51277     0.76322
O     -3.54962     2.09668    -0.94020
H     -4.23087     2.53819    -1.45638
O     -1.17046    -3.08631    -1.84034
H     -1.89101    -3.36246    -2.41811
O     -0.04589    -3.80176    -2.36271
H      0.45399    -3.07419    -2.76466
O      1.39033    -0.37280     2.20861
H      0.62623    -0.75124     1.72312
O      2.44316    -0.46419     1.24908
H      2.16662     0.23159     0.60972
O      1.25228    -3.67362     0.24347
H      1.01170    -4.15278    -0.55834
O      1.97157    -2.58707    -0.34632
H      2.22406    -2.04581     0.43298
