 32
-1213.3114448393503
O      2.44626    -0.14683    -0.58178
H      2.07112    -0.44743    -1.43383
O      2.48544    -1.36396     0.18520
H      2.28850    -0.97892     1.06213
O     -1.33820    -1.23657    -1.86629
H     -0.87616    -1.96845    -1.42576
O     -0.75631    -0.14197    -1.17548
H     -1.18288    -0.18006    -0.28959
O     -0.13656    -3.11813     0.70474
H      0.01960    -4.06320     0.78478
O      0.40546    -2.83123    -0.57753
H      1.22856    -2.34076    -0.33867
O     -0.32139     2.55113    -1.15921
H     -0.50070     1.60731    -1.31875
O     -0.75015     2.67434     0.20009
H      0.01266     2.30546     0.68884
O      1.53880     0.27200     2.05445
H      0.61418    -0.02640     2.16244
O      1.38333     1.44837     1.25491
H      1.82054     1.14776     0.43715
O      1.72871     0.15526    -3.61932
H      2.01738    -0.22727    -4.45354
O      1.31773    -1.00963    -2.90503
H      0.35770    -0.87926    -2.84147
O     -0.84904    -0.93796     2.10626
H     -0.68559    -1.74365     1.58515
O     -1.80137    -0.28242     1.26632
H     -2.06972     0.48342     1.81854
O     -2.38154     1.95622     2.56953
H     -2.73651     2.53275     3.25329
O     -3.09921     2.38945     1.40883
H     -2.33743     2.61172     0.83337
