 32
-1213.3105004190897
O      2.54255     1.19119     2.49224
H      2.96068     1.68732     3.20312
O      2.68393     2.09691     1.39573
H      1.74006     2.28551     1.18909
O     -2.27925    -3.34774    -0.62632
H     -2.75375    -2.65465    -1.11301
O     -1.44705    -2.51228     0.18759
H     -0.55185    -2.79822    -0.04371
O     -2.22688    -0.61193    -2.69712
H     -2.67270    -0.04838    -3.33660
O     -3.28588    -1.03049    -1.83832
H     -3.14933    -0.41122    -1.08161
O      0.09838     2.41277     0.76831
H     -0.02146     1.97488    -0.10252
O     -0.68005     1.59457     1.64937
H     -0.07325     0.86209     1.85893
O      3.86777     1.00125    -0.84084
H      3.47901     1.45290    -0.07401
O      2.78749     0.17925    -1.27491
H      2.73203    -0.49196    -0.56803
O      0.30370     1.03048    -1.53647
H      1.27395     0.89611    -1.59861
O     -0.06871    -0.31490    -1.21018
H     -0.88100    -0.42693    -1.75538
O      0.82097    -0.87044     1.20701
H      0.50093    -0.73509     0.28908
O      2.20941    -1.14120     1.00686
H      2.57211    -0.51742     1.65055
O     -3.07279    -0.60183     1.14061
H     -2.45526    -1.31844     0.89876
O     -2.62519     0.41708     0.24521
H     -1.96535     0.90508     0.78983
