 40
-1516.6416524460565
O      1.79674    -1.37229    -1.80016
H      2.02438    -2.25330    -1.47148
O      2.63725    -0.55452    -0.97200
H      2.42478     0.34292    -1.31489
O     -3.96442     0.11398     0.75236
H     -4.79095     0.40485     1.14828
O     -3.56925     1.27546     0.02368
H     -3.13114     0.86728    -0.75604
O      1.27535     2.25173     2.13667
H      1.11053     3.12609     1.76095
O      2.20250     1.70845     1.18272
H      2.28742     0.80437     1.55670
O     -1.97936     0.24585    -1.84000
H     -1.82420    -0.71371    -1.65709
O     -0.86272     0.85745    -1.19806
H     -0.86477     0.43698    -0.30730
O     -0.72729    -0.05325     2.23906
H     -0.52374     0.88309     2.05475
O     -1.37717    -0.43653     1.03074
H     -2.33058    -0.27279     1.20660
O      1.56917     1.69163    -1.96528
H      0.62826     1.43589    -1.91564
O      1.59925     2.85673    -1.13732
H      1.98904     2.47412    -0.32853
O     -1.36543     2.63579     1.22340
H     -2.14173     2.53377     0.65034
O     -0.64249     3.71176     0.64127
H     -0.21023     3.29178    -0.11617
O     -0.72136    -2.79009    -2.33964
H     -0.06538    -2.07889    -2.39593
O     -1.54812    -2.32678    -1.27558
H     -1.01411    -2.58042    -0.49018
O      1.89000    -0.71617     2.22486
H      0.91884    -0.75893     2.28744
O      2.21140    -1.78098     1.33820
H      2.55489    -1.27957     0.57083
O      1.19244    -3.94908    -0.68252
H      0.54403    -4.08421    -1.38607
O      0.32728    -3.34785     0.29500
H      0.97296    -2.81868     0.80705
