 36
-1364.9700867560393
O     -0.16628     0.59915     2.07158
H     -0.20822     0.23145     2.98236
O     -1.41276     1.30820     1.97617
H     -1.09483     2.04129     1.42295
O     -0.23578    -0.75061     4.33929
H     -0.29230    -0.57014     5.28244
O      1.06287    -1.36489     4.24619
H      1.04262    -1.68168     3.31946
O      1.22155     1.71699     0.09522
H      1.00196     1.14643     0.85655
O      0.06881     2.58415     0.10885
H     -0.14191     2.65669    -0.83598
O      1.72046    -2.07263    -2.05468
H      1.80819    -1.12471    -2.29894
O      2.87204    -2.24900    -1.22548
H      3.05165    -3.18189    -1.36942
O     -0.59186     2.93481    -2.51197
H     -0.40651     3.69540    -3.07134
O     -2.02362     2.91424    -2.47643
H     -2.14746     2.05164    -2.02057
O     -2.95627     0.25082    -0.13309
H     -2.37319     0.48197     0.61127
O     -2.14079     0.56921    -1.26054
H     -1.42249    -0.10134    -1.19596
O      2.07492    -1.15091     1.16515
H      2.40544    -1.64545     0.39652
O      1.01152    -1.99963     1.61680
H      0.23109    -1.53686     1.26338
O      1.62856     0.57530    -2.29301
H      1.53853     0.94510    -1.38471
O      0.26609     0.38443    -2.69099
H     -0.02060     1.29794    -2.85000
O     -1.68094    -2.60587    -0.31981
H     -2.50317    -2.10257    -0.39493
O     -0.75116    -1.56404    -0.61859
H     -0.05773    -2.01840    -1.12816
