 28
-1061.6442210791283
O     -2.55158    -0.38217    -1.16001
H     -2.43160     0.41255    -0.60589
O     -1.95830    -1.38542    -0.33439
H     -1.00701    -1.28691    -0.53382
O      2.43796     0.86141    -0.94135
H      2.73408     1.16379    -1.80822
O      3.65421     0.41601    -0.32992
H      3.36116    -0.44958    -0.01248
O     -0.46018    -2.68823     2.31917
H      0.28168    -2.37325     1.77580
O     -1.31310    -1.54375     2.30980
H      1.14147    -0.46333     1.27455
O      0.41704     0.25386    -3.27778
H      0.39511     0.57728    -4.18327
O     -0.64485     0.99870    -2.69634
H     -1.35149     0.33798    -2.59133
O     -1.68240     1.77882     0.17046
H     -1.56174     1.55420     1.11280
O     -0.29863     1.91291    -0.19157
H     -0.32451     1.58867    -1.10709
O      0.68490    -1.05539    -0.48284
H      1.17883    -0.27333    -0.80304
O      1.32359    -1.29263     0.77670
H     -1.72669    -1.60183     1.42686
O      0.80478     1.00288     2.06695
H      0.75029     1.58069     1.28778
O     -0.57589     0.99385     2.44364
H     -0.76280     0.03173     2.52601
