 40
-1516.6412461825448
O      3.46627    -1.19557    -0.03955
H      2.65374    -1.66636    -0.32220
O      3.01786     0.16053    -0.06569
H      3.46710     0.52419    -0.84603
O     -1.67696     2.89000     0.36637
H     -1.77422     2.50812     1.24986
O     -2.27278     1.87283    -0.43960
H     -1.47709     1.45200    -0.82558
O     -1.19829     0.56707     2.16163
H     -0.29796     0.76962     1.82851
O     -0.96866    -0.30690     3.26514
H     -1.31104    -1.13205     2.87385
O      1.66129    -0.95115     2.10064
H      2.57052    -0.66884     1.91158
O      1.66444    -1.23059     3.50770
H      0.88425    -0.71761     3.75818
O      1.00009     2.70243     0.04367
H      0.06090     2.96148     0.06012
O      0.91566     1.52130     0.84964
H      1.61973     0.97239     0.45017
O     -0.61957    -0.68722    -1.87480
H     -1.51283    -0.56217    -2.27237
O     -0.27513     0.68809    -1.65440
H      0.49199     0.80405    -2.25270
O     -3.81394    -1.24143    -2.16113
H     -3.41726    -1.45780    -1.30311
O     -3.10201    -0.06624    -2.52762
H     -3.36736     0.59380    -1.86946
O      0.53158    -2.81164     0.59148
H      0.98679    -2.20933     1.21885
O      1.11110    -2.36765    -0.63690
H      0.39211    -1.83852    -1.03079
O     -2.42358    -1.14424     0.50521
H     -2.18677    -0.28246     0.90024
O     -1.91068    -2.04625     1.49265
H     -1.13207    -2.42541     1.03838
O      2.82305     2.00393    -2.17408
H      2.15715     2.42188    -1.60648
O      1.99906     1.20578    -3.01588
H      2.14612     1.59123    -3.88511
