 24
-909.9811667107379
O     -0.80226    -1.29453     1.09651
H     -1.40521    -0.54033     1.22858
O     -1.34817    -1.88625    -0.08728
H     -0.60007    -1.74994    -0.70088
O     -3.11289    -0.10880    -1.22545
H     -2.54169    -0.79251    -0.82646
O     -2.15014     0.88526    -1.60020
H     -2.29711     1.56783    -0.92936
O      3.02416    -1.41229    -0.52201
H      3.92122    -1.43504    -0.86940
O      3.22594    -1.11649     0.86047
H      2.98869    -0.17017     0.86779
O      0.44183     0.41308    -1.54714
H     -0.54036     0.48727    -1.58476
O      0.63473    -1.00389    -1.61205
H      1.52792    -1.09943    -1.23086
O      1.91627     1.22703     0.49927
H      1.37231     1.02027    -0.29219
O      1.04369     0.88163     1.56276
H      0.77351    -0.02959     1.36371
O     -1.29561     1.99340     0.90718
H     -0.37880     1.72056     1.13109
O     -2.04991     0.99905     1.60508
H     -2.17628     1.39445     2.47530
