 36
-1364.9728425860462
O     -0.01470     1.34981    -0.86124
H     -0.09646     0.50996    -0.36896
O      1.24537     1.16282    -1.49994
H      1.04531     0.45240    -2.14224
O     -2.65032    -0.05959    -2.06489
H     -2.04076    -0.81975    -2.15043
O     -1.87575     0.96544    -2.70962
H     -1.30127     1.27413    -1.98294
O      2.81759     2.03857     1.39848
H      1.85002     1.99260     1.47668
O      3.03679     2.56387     0.09543
H      2.47452     1.99387    -0.45427
O     -0.59062    -1.61185    -2.63370
H     -0.00686    -1.93350    -1.91653
O      0.23903    -0.65337    -3.31096
H     -0.46073    -0.03266    -3.57116
O     -4.22293    -0.51034     0.69891
H     -5.00008    -0.44242     1.26084
O     -4.27047     0.73034    -0.01523
H     -3.82721     0.45994    -0.83930
O     -1.19775    -1.57390     1.39974
H     -0.54879    -1.29269     2.07423
O     -1.60030    -0.25525     0.99233
H     -2.57938    -0.34504     0.96468
O      3.07136    -0.85127     2.27684
H      3.80492    -0.88849     2.90228
O      3.71972    -0.40644     1.08208
H      3.50675     0.55945     1.11764
O      0.25884     1.12804     2.32576
H     -0.56593     0.94958     1.84104
O      0.53286    -0.19464     2.81541
H      1.46963    -0.30613     2.56909
O      1.22280    -1.15168     0.05723
H      2.09626    -1.39181     0.41093
O      0.67014    -2.39961    -0.38265
H     -0.10111    -2.42351     0.21120
