 16
-606.6381393312225
O     -1.94558     1.08101     0.76680
H     -2.56996     1.81247     0.82936
O     -0.82142     1.58847     1.49297
H     -0.20037     1.76251     0.76647
O      1.87185    -0.12630     1.65831
H      2.19017    -0.44889     0.80809
O      0.64942    -0.86696     1.76016
H      0.01615    -0.14641     1.88354
O     -0.76452     0.66843    -1.62126
H     -1.31132     0.62055    -0.82118
O      0.49660     1.03002    -1.02420
H      0.89900     0.14009    -1.02098
O     -0.08489    -2.09869    -1.83951
H     -0.48061    -1.27071    -2.14818
O      0.91146    -1.58223    -0.94577
H      0.49914    -1.73171    -0.08141
