 40
-1516.6492706126955
O      1.36092     1.50160     2.21628
H      0.62442     1.47956     1.56731
O      2.20009     0.42791     1.80081
H      1.72272    -0.35272     2.14167
O      1.18482     0.91229    -0.95941
H      1.15777     1.24044    -1.88219
O      2.53195     0.43342    -0.83933
H      2.59228     0.42916     0.13762
O     -0.97167     1.45403     0.96976
H     -1.59752     0.69004     0.89667
O     -1.71704     2.38493     1.73992
H     -1.39797     2.15091     2.62073
O      0.44334     0.83038     4.62614
H      0.90306     1.15775     3.82331
O     -0.87707     0.68082     4.09390
H     -1.42191     0.85728     4.86601
O      0.03530     0.17076    -3.56718
H      0.87814    -0.34724    -3.58399
O      0.55168     1.51384    -3.50835
H     -0.27972     1.98902    -3.37526
O     -0.43681    -2.04280    -1.42099
H     -1.25492    -2.07086    -0.87936
O      0.47834    -1.56670    -0.42810
H      0.61912    -0.62105    -0.66048
O     -1.71957     1.75471    -1.92330
H     -1.34469     1.76326    -1.02857
O     -2.14806     0.39576    -2.06768
H     -1.45340     0.05169    -2.66512
O      0.57387    -1.65917     2.17946
H      0.50460    -1.79612     1.20855
O     -0.79823    -1.52853     2.54764
H     -0.79175    -0.75849     3.14137
O      2.31481    -1.11454    -3.33919
H      2.78189    -0.91458    -2.51262
O      2.06230    -2.51967    -3.26073
H      1.22760    -2.53945    -2.76980
O     -2.73501    -0.39923     0.38305
H     -2.69730    -0.20617    -0.58162
O     -2.32673    -1.76647     0.42220
H     -1.82190    -1.77477     1.26216
