 36
-1364.9743392747873
O      1.10979     1.94911     0.29416
H      0.33294     1.86366     0.88535
O      0.54100     2.50052    -0.89219
H      0.57562     1.74542    -1.50276
O     -1.75039     2.82978     2.28404
H     -2.22052     3.00598     1.45499
O     -0.99799     1.67821     1.90103
H     -1.46548     0.93101     2.30559
O     -0.58503    -0.73327     3.32616
H     -0.05574    -0.18191     3.90910
O      0.37948    -1.12739     2.36375
H     -0.08314    -0.89337     1.52085
O      0.04052     0.42613    -3.00316
H      0.45245    -0.46029    -3.01520
O     -1.34756     0.15246    -3.23086
H     -1.63294    -0.16415    -2.35301
O      2.39024    -0.28984    -0.19090
H      2.02671     0.60607     0.00521
O      3.06437    -0.64581     1.00247
H      2.31409    -0.84269     1.58243
O     -1.96226    -0.20963    -0.60394
H     -2.05876     0.75112    -0.43355
O     -0.71402    -0.47176     0.05861
H     -0.27187    -1.11291    -0.55395
O     -2.60139     2.71581    -1.96546
H     -2.17228     2.02324    -2.49390
O     -2.10075     2.45876    -0.66587
H     -1.15901     2.73121    -0.74041
O      0.68815    -3.94669     1.58171
H      0.59685    -3.21639     2.20811
O      1.83135    -3.50544     0.85539
H      2.45503    -4.23221     0.97149
O      1.49464    -1.76301    -2.15903
H      2.00451    -1.20741    -1.53490
O      0.58152    -2.36779    -1.23864
H      1.16224    -2.84671    -0.61057
