 32
-1213.3077909299502
O      0.99051     2.12796     1.10491
H      1.42572     1.25685     1.18110
O      0.72748     2.15982    -0.30298
H      1.56355     2.54968    -0.64362
O     -0.88098    -3.40975     0.68010
H     -0.22582    -2.70075     0.80722
O     -1.82978    -3.03023     1.67517
H     -1.87626    -3.81899     2.22287
O     -3.51331    -0.46462     0.27493
H     -2.87639     0.16333    -0.10601
O     -2.97128    -1.65936    -0.29588
H     -2.69849    -2.17012     0.48807
O     -1.32604     0.53261    -0.82248
H     -0.54693     1.10544    -0.69213
O     -0.72335    -0.69593    -1.26277
H     -1.48674    -1.29723    -1.15102
O      0.68230    -1.26640     1.29173
H     -0.00842    -0.63417     1.57787
O      1.78431    -0.41940     1.00062
H      1.84036    -0.52017     0.03940
O      3.04780     3.12397    -1.19041
H      3.29664     3.77427    -1.85446
O      3.90707     2.02297    -1.49846
H      3.26195     1.35688    -1.77917
O      2.32182    -0.24775    -1.96797
H      2.74381    -0.93591    -2.48845
O      1.26154     0.17616    -2.82629
H      0.48814    -0.19064    -2.34446
O     -1.08980     0.46640     2.23120
H     -0.82746     1.36285     1.96804
O     -2.39852     0.64881     2.77676
H     -2.93187     0.17366     2.12330
