 40
-1516.6338289243288
O      1.58478     1.21299    -2.68296
H      2.12043     0.59160    -2.13315
O      1.91084     0.78964    -4.00502
H      2.59356     1.42451    -4.23784
O     -0.49117    -2.45021     0.42298
H     -0.92007    -2.11944    -0.39206
O     -0.62570    -1.30052     1.25354
H     -0.01403    -0.65480     0.82676
O     -0.06752     0.45181     3.55073
H     -0.22843     0.54421     4.49535
O      1.35243     0.44275     3.46618
H      1.52501    -0.51899     3.37530
O     -1.00280     2.40943    -2.11100
H     -0.15354     2.34840    -2.56882
O     -0.54118     2.48689    -0.76393
H     -1.32361     2.20645    -0.26240
O     -1.70513     1.38574     1.62636
H     -1.04186     1.14820     2.30187
O     -2.63756     0.30963     1.77129
H     -2.04309    -0.45598     1.60795
O      0.95178     0.59553     0.29131
H      0.53336     1.38598    -0.12407
O      2.10783     1.15978     0.91301
H      1.88813     1.00019     1.84742
O     -3.45418     0.82982    -1.36574
H     -4.07930     1.31072    -1.91784
O     -4.30330     0.19872    -0.40518
H     -3.78756     0.35990     0.40594
O     -1.51596    -1.05609    -1.60037
H     -2.15986    -0.31643    -1.67534
O     -0.57760    -0.87119    -2.66011
H     -0.20263    -0.00695    -2.43970
O      1.62109    -2.16920     2.82570
H      0.79832    -2.31344     2.33040
O      2.65067    -2.16126     1.83336
H      2.22413    -2.50627     1.03576
O      2.03310    -1.81548    -1.15961
H      1.29314    -1.60255    -1.75039
O      2.84700    -0.63774    -1.22329
H      2.88772    -0.37471    -0.29094
