 32
-1213.3146227718173
O      0.29555     0.37528     3.32379
H      0.50417    -0.41320     2.77500
O      1.57700     0.91460     3.64680
H      1.77625     1.43785     2.85853
O     -1.78092    -2.27007    -2.10965
H     -2.46375    -2.67340    -2.65453
O     -0.91142    -3.36433    -1.82450
H     -0.14027    -3.09048    -2.35675
O      1.25910     1.56000     0.43058
H      1.07394     1.82939    -0.48688
O      1.31220     2.79103     1.14536
H      0.39293     2.85891     1.45741
O     -1.26700     3.02833     2.03749
H     -1.71935     3.46276     2.76537
O     -1.72350     1.68355     2.14634
H     -0.99850     1.26232     2.66821
O      0.88520     1.16386    -2.37097
H      1.52958     0.43356    -2.44218
O     -0.30912     0.42745    -2.64473
H     -0.73212     0.41370    -1.76340
O      0.88654    -1.82257    -3.17218
H      0.27630    -1.05826    -3.21575
O      1.85928    -1.29328    -2.27829
H      1.46226    -1.42623    -1.39771
O      0.40385    -1.55578     1.43071
H     -0.53299    -1.51758     1.15480
O      1.01851    -1.05379     0.24819
H      1.10337    -0.10155     0.45155
O     -1.46838     0.41428    -0.24870
H     -1.64166     0.92694     0.56597
O     -1.81427    -0.90799     0.17808
H     -1.81017    -1.39307    -0.67380
