 36
-1364.9812631001525
O      2.93484    -0.96648     1.24072
H      1.97795    -0.89559     1.42129
O      2.96631    -1.63350    -0.02433
H      2.90896    -0.87581    -0.63554
O      0.38957    -1.86124    -1.56482
H     -0.41822    -2.25602    -1.96258
O      0.60010    -2.75650    -0.46104
H      1.54203    -2.55858    -0.26235
O      2.69369     2.33202     2.01610
H      1.83786     2.52277     1.59282
O      3.42190     1.74295     0.93261
H      3.65214     0.88006     1.31085
O     -0.78027    -1.54194     1.46983
H     -0.36247    -2.13083     0.80510
O      0.32331    -0.68864     1.79349
H     -0.03837     0.20155     1.60335
O     -2.90685    -2.50119    -1.63501
H     -2.65562    -1.56896    -1.51587
O     -1.84939    -2.91711    -2.51394
H     -2.06999    -3.84239    -2.65913
O     -3.35070     2.47021     0.72262
H     -3.40755     1.50794     0.60622
O     -2.49998     2.74820    -0.40499
H     -2.80258     3.62502    -0.66510
O     -0.61828     1.79859     1.39031
H     -1.41174     2.35737     1.34565
O      0.33801     2.60117     0.68163
H      0.48987     2.01790    -0.08951
O      2.32187     0.67983    -1.25527
H      2.64295     1.23809    -0.51581
O      0.90617     0.70576    -1.06320
H      0.67011    -0.23349    -1.23817
O     -2.64372    -0.11053     0.21221
H     -1.99697    -0.69760     0.67018
O     -2.06836    -0.01446    -1.09923
H     -1.88645     0.94072    -1.13001
