 20
-758.3075600380972
O      1.08307    -3.43958     0.34176
H      0.82876    -2.68353     0.90309
O      2.05265    -2.83373    -0.51786
H      2.88357    -3.09143    -0.10748
O      0.48737    -1.05119     1.59905
H      0.92722    -0.54609     0.89453
O     -0.83058    -1.08012     1.04558
H     -1.16477    -0.19756     1.30460
O     -0.47460     3.08802    -1.53193
H     -1.35665     2.76092    -1.31090
O      0.33578     2.34812    -0.60939
H      0.61945     1.58556    -1.13948
O     -0.09872    -0.42098    -1.43922
H     -0.58986    -0.75952    -0.66523
O      1.21164    -0.34464    -0.86426
H      1.50316    -1.27571    -0.95174
O     -2.51290     1.86563     0.63250
H     -2.91537     2.50310     1.22938
O     -1.31201     1.55275     1.34373
H     -0.63775     1.91072     0.72429
