 20
-758.3070138332513
O      0.61745    -1.53243     1.89439
H      0.52664    -1.74295     0.94467
O      1.88184    -0.87123     1.86647
H      2.47466    -1.53162     2.23889
O      0.82644    -1.83710    -0.79717
H      1.41814    -1.11718    -1.06793
O     -0.04911    -1.94300    -1.91404
H     -0.68486    -1.23584    -1.73728
O     -1.23068     0.62070     1.26491
H     -0.74321     0.09166     1.91541
O     -0.77530     1.96083     1.52153
H      0.09079     1.93746     1.07409
O      1.55804     1.29012     0.30937
H      1.72647     0.45749     0.78707
O      1.28794     0.82716    -1.01113
H      0.33172     0.96754    -1.07529
O     -1.57365     0.73822    -1.88562
H     -1.78665     1.34428    -2.60143
O     -2.80283     0.65692    -1.15876
H     -2.47063     0.86742    -0.27187
