 36
-1364.9725657903189
O     -1.16670     1.49394    -1.45919
H     -2.07252     1.31619    -1.12277
O     -0.98559     0.40157    -2.37136
H     -0.09103     0.63254    -2.69353
O     -4.05685    -0.42313    -1.12648
H     -3.26067    -0.96141    -1.24379
O     -3.52268     0.72913    -0.47963
H     -3.54410     0.46512     0.46284
O     -1.14500    -1.30020    -0.30136
H     -0.98820    -0.68508    -1.05701
O      0.14139    -1.89830    -0.09839
H      0.51813    -1.27562     0.55763
O      2.53210    -1.05329    -1.47748
H      1.79730    -1.63888    -1.21907
O      3.56835    -1.95639    -1.86213
H      4.04637    -2.02894    -1.02589
O     -1.80329     2.58934     1.20619
H     -1.74001     3.52477     1.42190
O     -0.91535     2.02118     2.16161
H     -1.49965     1.37309     2.58069
O     -1.98952    -0.63426     2.14388
H     -1.72438    -0.90767     1.23428
O     -3.37029    -0.31397     1.97421
H     -3.81916    -1.12303     2.24190
O      1.38884     2.00968    -1.05998
H      0.41648     2.06293    -1.01188
O      1.50860     1.26023    -2.28135
H      2.00846     0.47595    -1.98449
O      2.84535    -1.94759     1.36950
H      2.76000    -0.97543     1.37492
O      4.26198    -2.10100     1.21361
H      4.45913    -2.72402     1.91866
O      0.86601     0.18997     1.28942
H      0.36773     0.98617     1.55572
O      2.19280     0.69355     1.12456
H      2.08600     1.16285     0.26923
