 32
-1213.3127679243983
O      1.44063     1.81983     1.19577
H      1.17843     0.89380     1.36954
O      0.18032     2.49065     1.14370
H     -0.13178     2.28570     0.23475
O     -0.63024    -2.47325    -2.58761
H     -0.84957    -2.72641    -3.48981
O     -1.63958    -1.51806    -2.27851
H     -1.10576    -0.69515    -2.24566
O     -0.19232     0.64897    -1.83115
H      0.73170     0.96164    -1.65952
O     -0.99689     1.53829    -1.05194
H     -1.58648     0.90330    -0.59987
O     -1.66094    -1.47320     0.50287
H     -1.90202    -1.88182    -0.34271
O     -2.40417    -0.24538     0.41726
H     -2.26702     0.11938     1.31878
O      2.25195     1.56036    -1.31752
H      2.18088     1.86319    -0.38964
O      3.26083     0.54723    -1.19962
H      2.75084    -0.22791    -1.49942
O      1.71263    -1.57871    -1.66361
H      0.86562    -1.95254    -1.97748
O      2.00510    -2.38763    -0.52817
H      2.00134    -1.71042     0.16066
O      0.58815    -1.24551     2.79250
H      1.10452    -2.05041     2.71143
O      0.70765    -0.73936     1.48003
H     -0.14154    -1.01764     1.04978
O     -1.58663     1.10880     2.56941
H     -0.88555     1.68808     2.18217
O     -2.71386     1.98434     2.54405
H     -2.91257     2.04108     3.48310
