 40
-1516.6370413643883
O      1.44412    -0.00930     3.19373
H      1.89536    -0.60106     3.80309
O      2.52757     0.55696     2.46435
H      2.38683     0.13335     1.58674
O      0.46627     2.13008    -0.83578
H     -0.00269     1.36422    -1.23292
O     -0.16464     2.26577     0.44307
H      0.53119     2.72339     0.96620
O      1.82641     3.12309     2.03671
H      2.11265     2.27671     2.43025
O      3.04970     3.65817     1.53355
H      3.26643     3.00745     0.85117
O     -0.84095    -0.44974     1.77972
H     -0.06663    -0.31174     2.36101
O     -0.51738    -1.69698     1.15033
H     -1.34686    -1.88634     0.64854
O     -2.82544     2.02150     0.31719
H     -1.92957     2.39406     0.30259
O     -2.52417     0.66631     0.01826
H     -2.00407     0.38257     0.79436
O     -0.31307    -1.43474    -2.05937
H      0.61731    -1.40899    -1.74603
O     -0.63163    -0.04043    -2.08206
H     -1.45319    -0.03871    -1.56452
O     -2.49173    -3.19709    -2.99706
H     -1.66141    -2.75649    -2.77531
O     -2.48529    -4.20502    -1.98515
H     -2.98012    -4.91081    -2.40931
O     -2.74029    -2.16504    -0.25886
H     -2.96927    -2.92146    -0.83174
O     -3.98582    -1.79021     0.34095
H     -3.99598    -0.85541     0.09449
O      2.11785    -1.16519    -0.99800
H      2.55237    -0.35922    -1.32240
O      1.77694    -0.75424     0.32769
H      0.88973    -1.15245     0.49536
O      3.01321     1.67405    -0.55304
H      2.06285     1.90202    -0.68662
O      3.28507     1.11917    -1.83509
H      4.22126     1.31396    -1.92511
