 28
-1061.640735261026
O     -1.33301    -2.40078     0.25211
H     -0.59542    -1.97857    -0.22584
O     -0.69030    -2.86250     1.44019
H     -0.49498    -3.78162     1.22578
O      1.70535    -1.70120     1.45424
H      0.84073    -2.05405     1.72558
O      1.58878    -1.95937     0.04394
H      2.03297    -1.17298    -0.31849
O     -2.77348     0.56959     0.78886
H     -2.36009     1.38100     0.45824
O     -1.72785     0.06574     1.63797
H      0.08688     2.31161    -0.53352
O      0.59461     1.18900     0.88894
H     -0.18121     0.68031     1.21717
O      1.60188     0.93849     1.86057
H      1.70833    -0.03407     1.79679
O     -1.83250    -0.15835    -1.97776
H     -2.25889    -0.32772    -1.12568
O     -0.45910    -0.40560    -1.65352
H     -0.02834     0.44970    -1.82565
O     -1.69261     2.54249    -1.10760
H     -2.00850     1.92023    -1.77723
O     -0.29099     2.53403    -1.39914
H     -1.89633    -0.88789     1.60471
O      2.24982     0.93419    -1.84355
H      3.00780     1.27211    -2.33255
O      2.87428     0.33816    -0.70851
H      2.60494     0.93692     0.00682
