 28
-1061.6371253405378
O      1.42718    -2.50634    -0.32822
H      1.95202    -2.00833     0.31547
O      0.82067    -1.41607    -1.03263
H     -0.05027    -1.79936    -1.26979
O      3.63781     0.24565     1.00261
H      3.11504     0.72864     0.34792
O      2.62213    -0.56488     1.60119
H      2.19430     0.07271     2.20300
O     -2.29304     0.08186     1.80789
H     -1.57898     0.37179     2.39448
O     -1.57402    -0.11342     0.59395
H     -2.29998    -1.22487    -0.47135
O      0.17864     1.70926     2.20044
H      0.48918     1.48181     1.29857
O      1.32574     1.37821     2.98384
H      1.78122     2.22349     3.06100
O     -1.82345     0.79841    -2.68658
H     -2.27418    -0.02753    -2.44493
O     -2.23512     1.65229    -1.61436
H     -2.84297     2.25889    -2.05056
O     -1.55462    -2.50373    -1.63570
H     -1.82994    -3.36119    -1.29542
O     -2.64624    -1.65135    -1.28417
H     -1.65339     0.74944     0.15182
O      1.10893     1.63621    -1.54611
H      0.33886     1.24261    -1.97721
O      1.01450     1.05408    -0.24899
H      0.98460     0.08424    -0.46849
