 24
-909.9784346207786
O     -1.73603    -1.96680    -0.63632
H     -2.23627    -2.77740    -0.50177
O     -2.12228    -1.18844     0.49113
H     -1.26537    -1.09377     0.96073
O      0.85979    -1.70651    -1.18255
H     -0.09790    -1.80771    -1.00371
O      0.86229    -1.17589    -2.51071
H      0.76294    -0.22983    -2.31283
O      2.74889    -0.84965     0.47656
H      2.22946    -1.17423    -0.29166
O      3.03335     0.49025     0.07867
H      3.97254     0.44908    -0.12386
O     -2.69614     1.89308     1.13386
H     -1.94942     1.55607     1.65180
O     -2.38890     1.44132    -0.18290
H     -2.45336     0.47125    -0.09215
O      0.05302     0.73524     2.09303
H      0.24758     1.24465     1.27764
O      0.20213    -0.62230     1.66699
H      1.16043    -0.70825     1.51526
O      0.79329     1.23010    -1.14641
H      1.64256     1.07571    -0.69251
O      0.18668     2.13190    -0.21623
H     -0.77239     2.01698    -0.40351
