 24
-909.9757594187358
O     -0.49075    -2.18760     0.13873
H     -0.28239    -1.75975    -0.71219
O      0.44726    -1.50917     0.98298
H     -0.12351    -0.85261     1.42441
O      0.37867    -0.66239    -1.91418
H      1.35143    -0.74184    -1.79258
O      0.19325     0.72463    -1.59620
H     -0.77634     0.77676    -1.49814
O      2.91313    -0.82528    -1.16924
H      3.13246    -0.04873    -0.63763
O      2.84611    -1.86480    -0.18638
H      1.96559    -1.71288     0.21809
O     -2.50475     1.04705    -0.97904
H     -2.31057     1.45169    -0.10989
O     -2.97584    -0.23118    -0.53674
H     -3.86227    -0.24738    -0.91220
O     -1.46516     0.12625     1.94989
H     -2.13859    -0.29406     1.39507
O     -1.53155     1.47066     1.46850
H     -0.58559     1.71028     1.40266
O      1.66771     1.22396     0.50779
H      1.06975     1.07522    -0.25905
O      0.97945     2.30093     1.14704
H      1.59844     2.52069     1.85060
