 20
-758.3119762014783
O     -2.65369     0.38841     0.81715
H     -2.15894     0.82530     0.10650
O     -1.78738    -0.68202     1.18286
H     -1.05817    -0.23546     1.65253
O      2.45752    -1.06233    -0.34206
H      1.55775    -1.42884    -0.34505
O      2.23458     0.33143    -0.14434
H      1.73394     0.58727    -0.94613
O      0.27455     2.00232     1.34827
H      0.98593     2.51043     1.75185
O      0.53224     0.67400     1.82112
H      1.20782     0.38837     1.15608
O      0.20765     0.78848    -1.83849
H     -0.22805    -0.07782    -1.76309
O     -0.70270     1.60650    -1.09571
H     -0.19315     1.78587    -0.28174
O     -0.93466    -1.58222    -1.11812
H     -1.43673    -1.34061    -0.30084
O      0.09738    -2.37175    -0.53218
H     -0.02910    -3.21455    -0.97645
