 16
-606.6386184318467
O     -1.48531     0.73756     1.65864
H     -2.00465     1.08385     2.39125
O     -1.40480     1.89384     0.81366
H     -1.10063     1.47921    -0.01917
O      1.16344     0.36906     1.50373
H      0.19695     0.46095     1.62054
O      1.26781    -0.99991     1.08878
H      1.84810    -0.90826     0.32727
O      1.11448     1.38114    -1.24708
H      1.21859     1.38946    -0.28444
O     -0.22001     0.87602    -1.36522
H     -0.06752    -0.06083    -1.59376
O      0.19754    -1.73917    -1.81782
H     -0.08632    -2.30506    -2.54260
O     -0.77118    -2.04883    -0.80956
H     -0.25100    -1.84417    -0.01932
