 40
-1516.6423084210614
O      0.65158     1.27725    -0.77730
H      1.18576     1.10862    -1.58237
O      1.48746     2.18572    -0.07258
H      1.60537     1.70052     0.77068
O      1.52837     0.85991     2.25726
H      0.58190     0.68662     2.41494
O      2.06902    -0.45948     2.22764
H      2.06884    -0.66495     1.27081
O      0.39539    -2.13530     3.45566
H      1.14071    -1.55453     3.18369
O      0.73015    -3.35953     2.80183
H      0.85503    -3.94033     3.55827
O     -0.89664     3.25537     0.67825
H     -0.02360     3.08659     0.27602
O     -0.58025     3.20451     2.07063
H     -0.68487     4.12618     2.32386
O     -3.38471    -0.46469     0.11679
H     -2.75534    -0.91651     0.70550
O     -3.30060     0.84827     0.71295
H     -2.94382     1.35315    -0.04045
O      2.86977    -0.48666    -2.77166
H      2.84037    -1.03969    -3.56006
O      1.95968     0.57798    -3.08164
H      1.21250     0.10017    -3.51877
O     -1.83505    -0.03239    -1.97727
H     -2.53761    -0.44140    -1.43183
O     -1.88175     1.30802    -1.46711
H     -0.96267     1.39276    -1.12653
O      0.52868    -1.58496    -0.65052
H      0.04122    -1.11432     0.04806
O      1.88401    -1.23867    -0.33447
H      2.24809    -1.00114    -1.21135
O     -1.32127    -1.01907     1.69990
H     -0.91692    -1.61132     2.36903
O     -1.08306     0.24429     2.34181
H     -1.83817     0.77113     2.02787
O      0.28211    -2.14607    -3.27559
H      0.35549    -1.92354    -2.32719
O     -0.11211    -0.89512    -3.84663
H     -0.85506    -0.62663    -3.27076
