 24
-909.9784608230294
O      0.21672    -1.54797     1.74710
H      0.56067    -0.79572     2.26378
O     -1.09547    -1.01714     1.46908
H     -1.39458    -1.59121     0.73592
O     -1.84982    -2.23942    -0.72955
H     -2.24297    -2.98261    -1.19860
O     -2.84996    -1.22571    -0.89491
H     -2.28393    -0.48745    -1.19262
O      0.61577     1.02192     2.43075
H      1.34362     1.33786     1.86241
O     -0.48768     1.54578     1.65879
H     -0.93237     0.70676     1.43259
O     -0.41200     1.29194    -2.44333
H      0.08952     1.95659    -1.94761
O     -0.83530     0.46466    -1.36452
H     -0.11751    -0.19548    -1.34679
O      2.33684    -0.71958    -0.67122
H      2.83053    -1.14953    -1.37479
O      1.06548    -1.34807    -0.80630
H      0.85196    -1.57203     0.12625
O      0.93058     2.48470    -0.36636
H      0.20653     2.33203     0.27188
O      1.97424     1.78128     0.31328
H      2.04723     0.95679    -0.19397
