 32
-1213.3082818270993
O     -1.96096    -0.04380     1.11442
H     -1.47096    -0.79461     0.72817
O     -2.61107     0.50777    -0.02853
H     -2.00822     1.23783    -0.25101
O      1.99082    -0.44513    -1.84227
H      1.35064     0.25696    -2.08816
O      3.12487     0.34244    -1.47252
H      3.84430    -0.21397    -1.78463
O     -2.22531    -0.25429    -2.78345
H     -2.55571    -0.22546    -1.86814
O     -1.71172    -1.57623    -2.87228
H     -2.37135    -2.02716    -3.40960
O     -0.00714     1.31235    -2.32890
H     -0.80218     0.89991    -2.70418
O     -0.52623     1.80751    -1.08803
H      0.14494     1.47180    -0.45144
O      1.25651     0.79035     0.57884
H      1.31441    -0.04189     1.11017
O      2.47498     1.44766     0.90140
H      2.96555     1.20215     0.10544
O      0.46821    -2.56805    -0.34266
H      1.00551    -1.82767    -0.66429
O     -0.82890    -1.99554    -0.35938
H     -1.07914    -2.00523    -1.30410
O      0.20399    -1.14650     3.11521
H      0.23706    -0.17100     3.20293
O      1.22449    -1.34441     2.12174
H      0.92522    -2.17067     1.71390
O      0.23028     1.53770     3.12474
H      0.82939     1.83669     2.42512
O     -1.05227     1.97496     2.65511
H     -1.37922     1.17808     2.19890
