 32
-1213.3068097971386
O      1.54224    -2.37644    -2.67594
H      0.60384    -2.62132    -2.57476
O      1.77788    -1.69593    -1.44234
H      1.61223    -0.76706    -1.69834
O     -2.26143    -0.82239     3.28644
H     -3.19624    -0.84407     3.50947
O     -2.30724    -0.30470     1.96612
H     -1.96234     0.60095     2.06220
O     -1.71587    -1.61514    -3.10578
H     -1.05003    -0.93044    -2.94003
O     -1.12376    -2.77915    -2.51993
H     -1.55437    -2.81713    -1.65446
O     -0.93863     2.21805     1.50481
H     -0.09564     1.72988     1.54699
O     -0.81187     2.87828     0.23964
H     -0.90149     2.13354    -0.38726
O      1.17391     0.64793     1.42342
H      2.06107     0.90478     1.71606
O      0.79479    -0.35012     2.38503
H      0.64370    -1.11853     1.79983
O     -0.47623     0.74730    -1.33765
H     -0.53482    -0.07737    -0.80131
O      0.89344     0.82285    -1.73767
H      1.25992     1.46288    -1.10351
O      2.44734     3.21740     1.27586
H      2.94877     4.03782     1.20762
O      1.87162     3.13150    -0.02929
H      0.92937     3.31655     0.16779
O      0.11470    -2.21496     0.53267
H      0.77100    -2.12391    -0.20201
O     -1.00369    -1.51674    -0.03033
H     -1.48636    -1.22859     0.77410
