 40
-1516.6514961503037
O      3.42041    -1.73108    -1.39412
H      3.95226    -1.24668    -0.74950
O      2.24657    -0.91686    -1.38545
H      1.62537    -1.46547    -1.90987
O     -1.77269     0.77714     2.69066
H     -1.45781     1.69209     2.55059
O     -2.90823     0.73380     1.82497
H     -2.56467     0.23634     1.05524
O     -0.44022     2.77290     0.59870
H      0.06256     1.94671     0.73776
O     -0.74368     3.16357     1.94152
H     -1.57368     3.63556     1.76426
O      0.92158     0.50483     0.97881
H      1.83844     0.32355     1.25716
O      0.23136    -0.62343     1.52366
H     -0.46788    -0.19302     2.06807
O     -2.86985     2.83636    -0.43266
H     -1.89745     2.84425    -0.32974
O     -3.24444     3.21012     0.89812
H     -3.34049     2.32699     1.30137
O      0.26981     1.32286    -2.07484
H      0.96761     0.69118    -1.84262
O     -0.52470     0.56894    -2.99154
H     -1.40689     0.61696    -2.57583
O     -2.77294     0.30148    -1.53589
H     -2.97511     1.15783    -1.11359
O     -2.16267    -0.42199    -0.45437
H     -1.66170    -1.11617    -0.93938
O      0.82337    -2.95944     0.35068
H      0.67848    -2.11633     0.82121
O      2.22354    -3.15579     0.53149
H      2.57591    -2.90715    -0.34312
O     -0.75288    -2.36986    -1.72305
H     -0.17151    -2.78930    -1.05398
O      0.20348    -1.98712    -2.71602
H     -0.17288    -1.13348    -3.01935
O      4.36023    -0.75133     1.14818
H      5.07235    -0.97477     1.75518
O      3.20258    -1.04085     1.93650
H      2.91956    -1.90388     1.56666
