 32
-1213.3057941567347
O      0.25109    -2.10925     2.87203
H      0.24999    -2.90086     3.42175
O      1.38897    -1.38357     3.34712
H      1.91113    -1.34986     2.53383
O     -3.43770    -0.13153    -0.88343
H     -2.75758    -0.60300    -1.39730
O     -3.18282     1.21188    -1.30934
H     -2.49304     1.47473    -0.67771
O      4.01285     0.95980    -2.18014
H      4.61846     1.69626    -2.05271
O      3.10510     1.17389    -1.09972
H      2.25462     1.26779    -1.57592
O      0.14145     1.77675     0.71863
H      0.55874     0.89000     0.77475
O     -1.24384     1.48060     0.56870
H     -1.41114     0.79261     1.25096
O      0.70088     1.26969    -2.29311
H      0.61290     1.36207    -3.24702
O      0.39161     2.58500    -1.83693
H      0.28691     2.41882    -0.87934
O     -1.10049    -1.10701    -1.70073
H     -0.54142    -0.31838    -1.66937
O     -0.56162    -1.89685    -0.64391
H     -1.28936    -1.89429     0.01009
O      2.66578    -1.05735     0.40206
H      3.01678    -0.29440    -0.09604
O      1.34565    -0.58791     0.65770
H      0.79613    -1.23874     0.16696
O     -2.44942    -1.49438     1.27982
H     -3.01673    -0.90063     0.75270
O     -1.78593    -0.56029     2.13206
H     -1.02809    -1.09587     2.44215
