 40
-1516.642498488441
O      2.45365    -0.36346    -2.23470
H      2.26079     0.59149    -2.20992
O      1.38842    -0.88753    -1.44900
H      1.36926    -0.29323    -0.65960
O     -3.60025     0.95380     1.96438
H     -3.43860    -0.00240     1.92894
O     -2.30832     1.42313     1.61109
H     -2.34229     1.38412     0.62846
O      1.13006     0.67512     0.72712
H      0.67376     1.44211     1.13594
O      2.38763     0.71320     1.41577
H      2.45049    -0.23961     1.60985
O     -2.12004     1.43060    -1.01313
H     -1.90981     0.57074    -1.44942
O     -1.03347     2.25062    -1.45244
H     -1.05800     2.95322    -0.77958
O     -0.95463    -1.02135     2.11316
H     -1.09991    -0.09338     2.35566
O     -2.24310    -1.34829     1.57617
H     -2.03435    -1.48309     0.63340
O      1.69690     2.23667    -1.78375
H      0.72559     2.20561    -1.71201
O      2.06101     3.07845    -0.68012
H      2.37056     2.43148    -0.02751
O     -0.07443     2.93343     1.59558
H     -0.99099     2.68901     1.82025
O     -0.30934     3.88356     0.54790
H      0.59855     4.05391     0.26515
O     -1.19615    -0.88924    -1.97185
H     -0.21267    -0.86354    -1.96292
O     -1.45930    -1.86492    -0.95390
H     -0.96429    -2.63496    -1.29511
O      1.91933    -1.92200     1.63240
H      0.96200    -1.87377     1.79635
O      2.02647    -2.92631     0.63056
H      2.11893    -2.40396    -0.18455
O      0.27109    -3.69410    -1.81928
H      0.32399    -4.36424    -2.50821
O     -0.05506    -4.45959    -0.65638
H      0.63429    -4.13291    -0.05842
