 20
-758.3008761856612
O     -0.73863    -2.18295     1.62115
H     -0.67713    -2.71539     2.42103
O     -1.75490    -2.85660     0.87292
H     -2.44322    -2.17411     0.88000
O     -0.30936     0.79516     0.37745
H     -0.12425     1.28575    -0.44601
O      0.57387    -0.32615     0.17734
H      0.07376    -1.02401     0.63753
O      1.36133     0.39615    -2.25638
H      1.13987    -0.11515    -1.45925
O      0.91018     1.69071    -1.82674
H      1.74067     2.01352    -1.43198
O      3.28955     1.81649    -0.61395
H      3.12176     1.34328     0.20878
O      4.06066     0.85804    -1.35127
H      3.39589     0.55773    -1.98921
O     -3.75280     0.25539     1.82436
H     -4.45309     0.75062     1.38608
O     -3.03708    -0.26544     0.70335
H     -2.19560     0.21457     0.76106
