 36
-1364.9762247711226
O     -0.03262     1.29250     3.35482
H     -0.43291     0.49487     2.94968
O     -0.61284     2.28948     2.51784
H     -0.85044     2.95552     3.16594
O      2.54868     0.57602     2.94616
H      1.72543     1.00213     3.24497
O      3.18811     1.58808     2.17079
H      2.51877     1.80580     1.49555
O     -1.08924    -1.98286     1.66558
H     -0.99633    -2.02148     0.70230
O     -1.14527    -0.58401     1.87970
H     -1.56114    -0.21470     1.05936
O     -2.00696    -1.09984    -3.80192
H     -2.82422    -1.25191    -4.28404
O     -2.29177    -1.73079    -2.55362
H     -1.49641    -2.27427    -2.44172
O     -0.62231     1.16216    -3.24907
H     -1.05512     0.33429    -3.52113
O      0.65477     0.66981    -2.82798
H      0.68188     0.96771    -1.89586
O      1.15558     2.21833     0.49896
H      0.43764     2.39358     1.13410
O      0.60743     1.09271    -0.18480
H      1.09872     0.33887     0.21169
O     -2.18242     0.00309    -0.45247
H     -2.36971    -0.55005    -1.23724
O     -2.44278     1.33392    -0.89403
H     -1.70848     1.48358    -1.51187
O      2.02333    -0.88732     0.84944
H      2.43145    -0.45066     1.64627
O      1.75361    -2.21297     1.31607
H      0.94132    -2.06798     1.82555
O      0.15077    -1.90061    -1.08811
H      0.99143    -1.90415    -0.59566
O      0.57670    -2.03330    -2.44737
H      0.67679    -1.09589    -2.71340
