 36
-1364.9775464229479
O      1.03894     0.42007    -3.05527
H      0.82734     1.12529    -3.67631
O      2.14905     0.98694    -2.34435
H      2.31580     0.24424    -1.71730
O     -2.86148    -0.81515     1.34414
H     -2.19747    -1.45205     1.03666
O     -3.13068    -0.08896     0.14250
H     -2.98679     0.83169     0.42454
O     -1.70842    -1.09818    -1.84507
H     -2.43965    -0.76221    -1.28872
O     -0.63736    -0.45116    -1.16110
H     -0.07196    -0.15473    -1.90867
O      0.97907     2.76180    -0.69443
H      1.54560     2.29710    -1.33913
O     -0.29463     2.56650    -1.33600
H     -0.87695     3.04596    -0.73043
O      2.13932    -1.01449    -0.65637
H      1.50420    -1.76288    -0.60833
O      3.35318    -1.61857    -0.21812
H      3.20956    -1.51851     0.73561
O      1.09811     1.07254     1.34300
H      1.22418     1.82930     0.73229
O     -0.28793     0.82921     1.14496
H     -0.31820     0.35926     0.27688
O     -1.70126     3.02563     1.21818
H     -1.17063     2.20696     1.34152
O     -2.99938     2.46867     1.01558
H     -3.41950     2.61258     1.86924
O      2.24816    -1.18461     2.24427
H      1.80038    -0.34697     2.00528
O      1.11954    -2.00502     2.51476
H      1.34250    -2.36733     3.37746
O     -1.00823    -2.92557     0.06382
H     -1.19310    -2.53916    -0.80743
O      0.42308    -2.92208     0.06860
H      0.61945    -2.79156     1.01351
