 28
-1061.6440126003495
O     -1.65178     1.48039    -1.87089
H     -0.72317     1.56004    -2.15075
O     -1.50876     0.48609    -0.86182
H     -1.20171     1.00087    -0.08357
O      1.82104    -0.77371     0.59018
H      1.49574    -1.02267    -0.29983
O      0.86888    -1.49921     1.38549
H      0.26421    -0.79118     1.67425
O     -0.88568     1.67122     1.45155
H     -0.01591     2.04066     1.67259
O     -0.83876     0.44343     2.19270
H      0.19579    -2.93682     0.01373
O      1.02508     1.36528    -1.89080
H      1.40269     1.72121    -1.06296
O      2.08044     0.53004    -2.35440
H      1.59335    -0.29672    -2.46547
O     -3.08520    -0.93887     1.07294
H     -2.94407    -0.44864     0.24624
O     -2.19535    -2.04491     0.90003
H     -2.75858    -2.73375     0.52497
O      0.37486    -1.72977    -1.38762
H     -0.43177    -1.19371    -1.28004
O     -0.01704    -3.01943    -0.92908
H     -1.76552     0.16430     2.14515
O      2.15912     2.41529     0.27271
H      3.11123     2.56096     0.29090
O      1.92206     1.72046     1.49632
H      1.95633     0.78050     1.19737
