 28
-1061.6445644278383
O     -0.94966     0.73617     2.00716
H     -1.64801     0.43968     1.39645
O     -0.43212     1.81646     1.21770
H      0.17827     2.22193     1.86686
O      1.58005     1.05589    -0.44474
H      0.89372     1.35439     0.17943
O      2.35510     0.16308     0.37040
H      1.77139    -0.62209     0.40525
O      0.35442    -1.52477     0.73202
H     -0.03625    -1.04807     1.48225
O      0.07667    -2.89205     1.03461
H     -2.26566    -1.98398    -2.76303
O     -0.39170     0.32645    -3.04123
H     -1.06064     0.64893    -2.41027
O      0.37579    -0.54908    -2.20880
H      0.88364     0.07698    -1.64600
O     -2.25175     0.07620    -0.17974
H     -2.14629    -0.70199    -0.77011
O     -2.04913     1.18311    -1.06482
H     -1.42795     1.69369    -0.53006
O     -0.96275    -2.72666    -1.61263
H     -0.34214    -1.98080    -1.77815
O     -2.20851    -2.05313    -1.80436
H     -0.43718    -3.12010     0.24750
O      1.68539     2.56410     2.59073
H      2.40260     3.20320     2.64659
O      2.34344     1.31925     2.84323
H      2.43542     0.95798     1.93764
