 24
-909.9845697694163
O      0.08981    -2.59987     1.51689
H      0.80019    -1.95934     1.31617
O     -0.16462    -3.12631     0.21663
H      0.33428    -3.95099     0.20586
O      1.17416    -1.28533    -2.03266
H      1.25438    -0.37261    -2.35756
O     -0.21133    -1.25793    -1.66513
H     -0.23248    -1.92923    -0.95351
O      1.55882     0.50192     0.68927
H      0.67912     0.39757     1.11034
O      1.96011    -0.86092     0.52826
H      1.78609    -1.00281    -0.42156
O     -0.44208     3.02240     0.49018
H     -0.54072     2.53550    -0.35470
O     -1.74909     2.81413     1.02743
H     -1.94815     3.67800     1.39810
O     -0.90736     0.38846     1.64272
H     -1.34060     1.25577     1.49723
O     -1.79810    -0.49372     0.95214
H     -1.64697    -1.30292     1.45704
O      0.90926     1.39720    -1.75795
H      1.22042     1.24130    -0.84416
O     -0.50912     1.36663    -1.57334
H     -0.66198     0.40992    -1.45265
