 16
-606.6342455223918
O     -2.60969     0.15530    -0.15043
H     -3.15013    -0.03780     0.62202
O     -2.03798     1.42164     0.22370
H     -1.34875     1.50938    -0.45700
O      2.97867    -0.68933     0.91550
H      3.22511    -0.74539     1.84338
O      1.59228    -0.34497     1.02192
H      1.15610    -1.13530     0.66577
O      0.00360     1.58158    -1.50506
H      0.30931     2.12331    -2.23885
O      0.77278     2.10407    -0.42368
H      1.01679     1.27286     0.00702
O     -0.44394    -1.36442    -0.70976
H     -1.22957    -0.82829    -0.48859
O     -0.45962    -2.31872     0.35926
H     -0.25894    -3.12055    -0.12902
