 36
-1364.971799714411
O      2.78621     0.65444     1.58432
H      2.04528     0.37954     2.16021
O      2.31667     0.06617     0.36165
H      3.04487    -0.52142     0.10660
O      0.47428    -0.33297     2.50833
H     -0.21171     0.23025     2.07728
O      0.37792    -1.58361     1.81926
H      1.00329    -1.45206     1.08579
O      1.63654     2.92171    -0.61306
H      0.82218     3.23893    -1.01532
O      1.33391     3.11985     0.77762
H      2.05348     2.61028     1.17358
O      0.10094     0.63784    -1.48657
H      0.77911     0.91530    -0.83818
O     -0.63681     1.84006    -1.69356
H     -1.49753     1.61272    -1.29364
O      0.81999    -1.67940    -2.54685
H      0.53515    -0.79064    -2.23809
O     -0.22946    -2.51447    -2.04758
H      0.23343    -2.99094    -1.34253
O     -3.57274     0.84295     0.14995
H     -2.95861     0.08277     0.03730
O     -3.25211     1.61157    -1.00669
H     -3.90044     1.30917    -1.65106
O     -1.03644     1.51923     1.39055
H     -0.45655     2.29043     1.26898
O     -2.07400     2.02628     2.23365
H     -2.83668     1.83034     1.67047
O      2.93786    -2.32120    -0.99724
H      2.35442    -2.04777    -1.73119
O      1.98726    -3.08528    -0.24755
H      2.43717    -3.93202    -0.17052
O     -1.92504    -2.17386     0.57085
H     -1.14867    -1.90396     1.10345
O     -1.93581    -1.15532    -0.43432
H     -1.49628    -1.59678    -1.18905
