 36
-1364.976171043646
O      3.47091    -0.76418    -0.15389
H      2.83554    -0.81927     0.58921
O      2.82002     0.11765    -1.06561
H      2.21388    -0.48545    -1.53992
O     -0.41749    -2.49930     0.97584
H     -0.47983    -2.10847     0.07894
O     -1.40613    -1.73337     1.66821
H     -0.82835    -1.13108     2.17537
O     -3.42251     0.84704     1.23312
H     -2.92287     1.67271     1.31180
O     -2.65015     0.19519     0.21615
H     -2.38109    -0.62766     0.67400
O     -2.19692     2.78102    -1.63758
H     -1.96255     2.65639    -2.56351
O     -3.56437     2.36258    -1.58706
H     -3.46573     1.50171    -1.15214
O     -0.25912    -1.23190    -1.33037
H     -0.12782    -0.27337    -1.16631
O      0.97090    -1.59447    -1.96523
H      1.22446    -2.39944    -1.47027
O     -1.21582     2.94973     1.20073
H     -0.31322     3.09696     1.50822
O     -1.67555     4.28100     0.94141
H     -2.02372     4.15374     0.04815
O      1.06521     1.54481     0.28556
H      1.89195     1.24366    -0.15454
O      0.14764     1.31847    -0.79191
H     -0.58863     1.91342    -0.55541
O      1.75113    -1.26411     1.82073
H      1.16405    -1.97717     1.49756
O      0.76731    -0.30279     2.22410
H      0.84160     0.37114     1.51956
O      2.03695    -3.49182    -0.47547
H      2.10521    -4.42236    -0.23786
O      3.24964    -3.26668    -1.19253
H      3.50078    -2.40836    -0.80395
