 24
-909.9755580325718
O     -1.75132     0.04600     0.75427
H     -2.14737     0.93153     0.71980
O     -0.80076     0.20125     1.81791
H     -0.51865    -0.72404     1.91070
O      2.60477    -1.57810    -1.28936
H      2.95382    -1.67150    -2.18242
O      1.33186    -2.22102    -1.39993
H      0.72577    -1.45846    -1.51747
O      1.57700     1.38974     1.23510
H      0.66327     1.06273     1.33095
O      1.91331     0.98735    -0.09253
H      2.15109     0.05267    -0.00218
O     -1.81332     2.73618    -0.13799
H     -1.28198     2.33102    -0.85138
O     -3.14534     2.54402    -0.61926
H     -3.45266     3.45448    -0.66714
O      1.31023    -2.46674     1.47672
H      1.33454    -2.78879     0.56245
O     -0.10185    -2.40585     1.70091
H     -0.22581    -3.06341     2.39256
O     -0.13395     1.23122    -1.69360
H      0.66579     1.26120    -1.11780
O     -0.47732    -0.16018    -1.56082
H     -1.00242    -0.14361    -0.73638
