 28
-1061.6434144319933
O     -2.04323    -1.54873    -0.73504
H     -2.33106    -0.65990    -0.97880
O     -0.74200    -1.55145    -1.34107
H     -0.17747    -1.84711    -0.59885
O      2.29804    -1.66819    -1.48423
H      2.20574    -1.40282    -0.54583
O      3.09959    -0.58577    -1.97294
H      3.23211    -0.85006    -2.88813
O     -1.07905    -0.81211     2.78092
H     -0.64660     0.05422     2.78131
O     -2.25845    -0.51368     2.02436
H      1.20411    -0.04439     1.08715
O      1.46591     1.34327    -1.24719
H      2.17431     0.71189    -1.51376
O      0.46524     1.10735    -2.22588
H      0.22747     0.18535    -2.04318
O     -1.74977     1.30475    -0.42444
H     -1.47744     2.01286    -1.02734
O     -2.86477     1.84121     0.29831
H     -2.75687     1.32805     1.11323
O      0.61750    -1.86477     0.95335
H      0.10814    -1.65964     1.76338
O      1.68426    -0.90408     0.99126
H     -2.16008    -1.09178     1.25154
O      0.87103     2.50534     1.07114
H      1.28027     2.28793     0.21375
O      0.22917     1.26166     1.33930
H     -0.47156     1.26014     0.65115
