 40
-1516.6403829047385
O      2.85023    -1.07713     1.00753
H      2.05616    -0.53021     1.19938
O      3.14277    -0.71133    -0.34486
H      3.13607     0.26364    -0.31485
O     -1.00102     1.04629    -0.47661
H     -1.74857     1.58385    -0.14486
O     -1.66328     0.04238    -1.25142
H     -1.31312     0.25728    -2.14131
O     -2.72067     1.56362     2.62088
H     -1.78417     1.32609     2.67082
O     -3.12122     1.00709     1.37137
H     -2.87887     0.07279     1.44993
O      0.70031     0.32066     1.42191
H      0.08321     0.52057     0.66854
O     -0.15325    -0.25664     2.39950
H      0.02821    -1.20918     2.29348
O     -0.29592     3.43673     1.10738
H      0.11952     3.54871     0.24298
O     -1.67534     3.55264     0.72718
H     -2.10354     3.41235     1.58059
O      2.48275     1.94757    -0.24087
H      1.95573     1.88617     0.57035
O      1.62735     2.69966    -1.09846
H      1.38459     2.04702    -1.77611
O     -0.46309     0.68371    -3.56920
H     -0.50579     0.32121    -4.45905
O      0.92617     0.54807    -3.25127
H      0.90258    -0.24743    -2.66257
O      0.42959    -2.98892     1.52772
H     -0.28826    -2.85948     0.87274
O      1.49263    -3.43990     0.67876
H      2.16357    -2.75540     0.85661
O      0.83611    -1.41113    -1.46351
H      1.73107    -1.30478    -1.06923
O      0.81368    -2.77926    -1.87012
H      1.01518    -3.20345    -1.01463
O     -2.50465    -1.90394     0.98809
H     -3.29740    -2.39315     0.74703
O     -1.59854    -2.31658    -0.02965
H     -1.52077    -1.50328    -0.58663
