 24
-909.979691740833
O     -2.39481     0.90266     0.58374
H     -2.50637     0.05262     0.11580
O     -1.34121     0.56914     1.49242
H     -0.68480     1.26154     1.29547
O      0.69069    -0.93147    -1.47087
H      0.25038    -1.30572    -0.68673
O     -0.14792     0.18990    -1.76315
H      0.29743     0.91962    -1.28941
O      3.12919    -0.20256    -0.58659
H      2.28083    -0.43853    -1.00984
O      2.70783     0.32292     0.66738
H      2.15852    -0.38440     1.05156
O     -2.56315    -1.46637    -0.62776
H     -3.31996    -2.06081    -0.63425
O     -2.60653    -0.91892    -1.94545
H     -1.71409    -0.52653    -1.96912
O     -0.12029    -1.68524     1.02326
H     -0.72773    -0.93988     1.25694
O      0.98589    -1.36370     1.86019
H      1.01529    -2.12304     2.44702
O      1.14902     2.12265    -0.36744
H      1.91970     1.61802    -0.00425
O      0.46877     2.45231     0.84470
H      0.33710     3.39811     0.73990
