 36
-1364.9755018388928
O      1.79898     1.98197    -1.29009
H      2.14900     1.90874    -0.37853
O      2.59624     1.02987    -1.99918
H      2.23114     0.18964    -1.66291
O     -1.23837    -0.81003    -2.08156
H     -0.74150    -0.05367    -2.47498
O     -2.38936    -0.11238    -1.58655
H     -2.33940    -0.33006    -0.63694
O      1.74387    -1.33286     2.30441
H      1.81517    -0.36236     2.24855
O      0.34446    -1.49031     2.54845
H      0.09298    -2.07800     1.81746
O      1.46930    -1.09901    -0.76039
H      0.55662    -1.37642    -0.97148
O      2.07568    -2.28371    -0.24750
H      2.12947    -2.03638     0.69314
O      1.59224     1.39861     2.11743
H      0.78473     1.62456     1.59263
O      2.61696     1.94998     1.29367
H      2.85331     2.74893     1.77432
O     -2.25234    -0.16321     2.12631
H     -1.32389    -0.33132     2.35973
O     -2.36881    -0.94538     0.94462
H     -2.90925    -1.69912     1.21558
O     -0.33493     1.53872    -2.76266
H      0.51014     1.77929    -2.31024
O     -1.28286     2.25473    -1.95244
H     -2.02013     1.61938    -1.96441
O     -1.62975     2.41380     1.36506
H     -2.11424     1.61769     1.62112
O     -0.57127     1.78925     0.63352
H     -0.73426     2.10626    -0.28330
O     -0.52537    -3.00398     0.09278
H      0.22237    -3.54078    -0.20619
O     -1.53837    -3.28388    -0.88321
H     -1.53549    -2.44629    -1.37923
