 20
-758.2994708924291
O     -1.92855    -0.29453     1.56611
H     -1.95317    -0.33899     2.52736
O     -1.89935     1.11152     1.30781
H     -0.96195     1.24522     1.06310
O      1.86696    -1.26454     1.06048
H      2.77734    -1.37660     1.35075
O      1.78226    -2.23891     0.01277
H      0.81041    -2.31878    -0.04996
O      0.83708     0.58058    -0.55972
H      1.31780    -0.09167    -0.04076
O      0.62924     1.58960     0.44302
H      0.60136     2.36896    -0.14180
O      0.43634     3.34076    -1.57230
H     -0.43911     3.57691    -1.89830
O      0.97344     2.58520    -2.66747
H      0.97763     1.70117    -2.27313
O     -0.89836    -2.02091    -0.16431
H     -1.26348    -1.34093     0.44571
O     -1.59265    -3.18955     0.27074
H     -2.13958    -3.36723    -0.49963
