 32
-1213.3061859777713
O      3.24100    -0.18546     2.29713
H      3.37929    -0.25234     3.24738
O      1.90318    -0.64730     2.17242
H      1.43442     0.17678     1.91131
O      0.12082    -2.09136     0.19140
H      0.85264    -1.49170     0.41117
O     -0.48764    -1.39964    -0.90289
H     -1.33071    -1.08579    -0.51220
O     -0.36763     1.67165    -1.20398
H     -0.04725     1.45442    -2.11066
O     -1.56127     2.40362    -1.48801
H     -2.22831     1.77459    -1.17792
O      0.24389     1.19194     1.36090
H     -0.01504     1.36872     0.42612
O     -1.00240     1.15968     2.05867
H     -0.92399     0.31108     2.53210
O      0.33196     1.21951    -3.74114
H      0.03751     1.84313    -4.41262
O      1.75576     1.22547    -3.92710
H      1.97366     0.52342    -3.29143
O      2.08644    -0.03054    -0.71747
H      3.03502    -0.15008    -0.59565
O      1.86115    -0.67316    -1.98048
H      0.93989    -0.95907    -1.83759
O     -1.47945    -2.28118     2.27846
H     -0.93998    -2.34326     1.46113
O     -0.75805    -1.30938     3.03618
H      0.17057    -1.56097     2.91014
O     -3.07748     0.68097     0.42218
H     -2.34426     0.95436     1.01425
O     -2.81774    -0.71177     0.23788
H     -2.86696    -1.08578     1.13326
