 32
-1213.3144199524306
O      1.54404    -1.82527     2.54167
H      0.67566    -1.86848     2.06859
O      1.44977    -0.57202     3.20416
H      1.10137    -0.81686     4.06656
O      0.02141     0.26584    -2.00810
H     -0.90666    -0.04418    -1.89021
O      0.59098    -0.76015    -2.80975
H      1.33992    -0.99298    -2.24794
O     -2.49999    -0.41030    -1.51508
H     -3.11452    -0.05171    -0.86042
O     -2.73550    -1.82610    -1.42391
H     -1.90158    -2.11556    -1.00693
O      0.41645     2.80178    -1.41088
H      0.29582     1.87435    -1.72702
O     -0.93588     3.24381    -1.35820
H     -1.04580     3.66546    -2.21485
O      1.84798    -0.95671    -0.21636
H      1.88018    -0.00702     0.02782
O      3.07806    -1.44574     0.29606
H      2.78638    -1.69932     1.18593
O     -1.48034     0.75166     0.89718
H     -0.74796     1.33400     1.19453
O     -2.55544     1.59805     0.53997
H     -2.16312     2.06932    -0.20652
O      0.91641     1.62698     1.75512
H      1.21004     0.85363     2.27177
O      1.81011     1.55975     0.64161
H      1.47214     2.27370     0.07341
O     -0.39414    -2.28872    -0.12026
H      0.47056    -1.84430    -0.27099
O     -0.69786    -1.77147     1.17632
H     -1.08604    -0.89827     0.96490
