 32
-1213.3157943395013
O     -0.43080    -2.26400     0.21354
H      0.51101    -2.42300     0.41294
O     -0.53892    -2.77313    -1.12439
H     -1.39814    -2.36974    -1.35105
O      0.50888    -0.03598     2.05639
H     -0.27766     0.44470     1.75621
O      1.49871     0.58036     1.22470
H      2.19370    -0.09420     1.23672
O     -2.44009    -0.60814     0.17050
H     -1.63021    -1.07862     0.44466
O     -2.52143    -0.99878    -1.20266
H     -2.07997    -0.25031    -1.64686
O      0.02355     1.27218    -1.52319
H     -0.55697     1.57441    -0.79950
O     -0.91148     0.76105    -2.48558
H     -0.31670     0.13843    -2.93394
O      0.91410     3.37682     1.82023
H      1.27078     2.47810     1.82208
O     -0.17084     3.20522     2.73277
H     -0.11914     4.00864     3.25818
O      1.06991    -1.14211    -2.59776
H      0.58443    -1.80688    -2.07289
O      1.89887    -0.53244    -1.60021
H      1.33729     0.23123    -1.34048
O      2.13314    -2.82572     0.73567
H      2.66769    -3.60454     0.55801
O      3.02763    -1.75246     0.45069
H      2.67357    -1.44009    -0.40939
O     -2.72164     2.00565     0.49274
H     -2.87322     1.04946     0.37742
O     -1.30096     1.95994     0.68701
H     -1.13603     2.63210     1.37696
