 36
-1364.9800168211416
O      1.77348     0.53471     0.66596
H      2.25458     1.22882     0.16923
O      2.74830    -0.49444     0.79371
H      2.50158    -1.06257     0.03943
O     -1.94437    -0.42370    -1.84408
H     -1.82101    -0.04269    -0.95153
O     -1.68600    -1.81194    -1.57740
H     -0.73457    -1.88002    -1.80810
O     -2.60064    -2.16710     1.55603
H     -2.61950    -1.20015     1.65380
O     -3.45410    -2.39226     0.42880
H     -2.84270    -2.23474    -0.31539
O      1.69760    -2.26055    -0.97091
H      0.99906    -2.67177    -0.42751
O      0.92569    -1.67241    -2.01751
H      1.09857    -0.72408    -1.92396
O     -1.16945     0.42128     0.56562
H     -0.55490    -0.28547     0.86951
O     -1.95442     0.59706     1.75047
H     -1.35303     1.20712     2.22616
O     -0.17306     2.74560     1.13737
H     -0.44596     2.04187     0.52127
O      0.24109     2.00502     2.28748
H      0.86784     1.37377     1.87900
O      0.29457     1.03349    -2.83679
H     -0.59062     0.65013    -2.92707
O      0.12558     1.72275    -1.59233
H      0.54336     2.57750    -1.76494
O      1.92657     3.70804    -0.56797
H      1.38012     3.57249     0.22417
O      2.90732     2.69085    -0.40346
H      3.70034     3.17989    -0.16017
O      0.23530    -1.62778     1.45186
H      1.13930    -1.77139     1.77043
O     -0.14350    -2.90456     0.91245
H     -1.10485    -2.86695     1.12966
