 24
-909.978642915811
O     -1.56794    -1.48828    -0.36590
H     -1.85389    -0.59873    -0.65130
O     -1.05824    -1.22535     0.94445
H     -0.11223    -1.43488     0.82576
O      0.30654    -1.85579    -2.27254
H     -0.41389    -1.92449    -1.61265
O     -0.16454    -0.76482    -3.06793
H     -0.49687    -1.22111    -3.84619
O      1.74028    -0.29137    -0.48353
H      1.53774    -0.85976    -1.24615
O      1.61136    -1.23563     0.59500
H      1.90112    -0.66018     1.33136
O     -2.07407     2.20221    -1.39216
H     -1.34440     2.28819    -0.75209
O     -2.06537     0.79174    -1.60364
H     -1.36316     0.67979    -2.25971
O      1.90605     0.70543     2.43166
H      1.07256     1.17944     2.21646
O      1.55102     0.03085     3.63805
H      2.17458     0.42418     4.25552
O      0.08351     1.73955     0.10652
H      0.68380     0.99410    -0.10010
O     -0.44098     1.40719     1.39822
H     -0.87973     0.54641     1.24370
