 24
-909.9742079735377
O     -2.69852     1.03787    -0.59985
H     -3.50512     1.46652    -0.90314
O     -3.07315     0.61297     0.71685
H     -3.08362    -0.35038     0.57805
O      1.11071    -0.88197    -1.67679
H      0.26398    -1.35777    -1.59715
O      0.64166     0.39685    -2.13513
H      1.21325     1.01500    -1.63005
O     -0.29691    -1.03474     1.86842
H      0.62929    -1.15189     1.58969
O     -0.36784     0.39396     1.90585
H     -1.27675     0.55563     1.60869
O     -2.08805    -1.89795     0.07081
H     -1.35833    -1.71692     0.69930
O     -1.48361    -1.60401    -1.19077
H     -1.84902    -0.72670    -1.38518
O      2.99592     0.01199     1.04551
H      3.86215    -0.40204     1.01357
O      2.14518    -1.07943     0.72754
H      1.89464    -0.90356    -0.21381
O      0.97546     2.47563     0.17908
H      0.62169     1.67777     0.60118
O      2.10677     1.99023    -0.53563
H      2.52977     1.40058     0.11581
