 36
-1364.9821048061197
O     -0.42103     0.72112     1.94704
H     -0.40665    -0.25375     1.86899
O     -1.55769     1.08452     1.17095
H     -1.25022     1.93570     0.80630
O      2.85537    -1.22695     1.41179
H      2.65945    -0.52831     2.06661
O      3.08397    -0.40609     0.26268
H      2.22242    -0.45112    -0.19927
O      0.59309     0.76454    -1.95860
H      0.76800     1.54355    -1.39256
O      0.78325    -0.29220    -1.01551
H      0.04457    -0.89032    -1.22912
O     -2.00662    -0.73385    -0.73192
H     -1.93143    -0.07643    -0.00231
O     -2.37103    -1.92606    -0.02777
H     -2.23024    -2.59084    -0.72062
O     -2.97061     1.97723    -1.40103
H     -3.61111     1.60750    -2.01822
O     -1.89150     2.35758    -2.24890
H     -1.31834     1.57535    -2.21349
O     -0.39686     3.24241     0.05188
H     -0.85376     3.43120    -0.78145
O      0.90440     2.91702    -0.44999
H      1.43199     2.76676     0.35971
O      0.65941    -2.70374     0.88809
H      1.49661    -2.24634     1.12554
O     -0.30460    -1.96425     1.64733
H     -1.11907    -2.10552     1.11953
O      2.15633     1.12437     2.38330
H      1.20206     1.12676     2.17149
O      2.69232     1.97092     1.36520
H      3.11184     1.28893     0.80457
O     -1.30582    -3.98821    -1.50628
H     -1.30406    -4.33577    -2.40274
O     -0.26349    -3.01855    -1.59807
H      0.14704    -3.12019    -0.72088
