 40
-1516.6436225760294
O     -0.76075     1.06131    -1.93224
H     -1.51567     1.65901    -1.77794
O      0.33186     1.96396    -1.73968
H      1.04823     1.35669    -1.43990
O     -3.82088     0.72299     0.51310
H     -4.16262     1.34791    -0.13376
O     -2.53871     1.29376     0.74333
H     -1.96032     0.51171     0.60524
O      3.02096    -3.06834     2.37671
H      2.31850    -3.46968     1.83028
O      3.09441    -1.77043     1.78146
H      4.00075    -1.72016     1.45847
O     -0.96860    -0.81302     0.39481
H     -0.82273    -1.31015    -0.44163
O     -0.74072    -1.77932     1.42174
H     -0.18218    -1.23626     2.01258
O     -2.63485     3.01319    -1.61652
H     -2.27119     3.53149    -0.87860
O     -4.03504     3.23878    -1.48954
H     -4.22568     3.68010    -2.32208
O      2.25942     0.43330    -0.75154
H      2.02868     0.43698     0.20488
O      2.51824    -0.93697    -1.03392
H      1.90948    -1.05397    -1.79140
O     -0.52783     3.58343     0.21114
H     -0.06814     3.01860    -0.44133
O     -0.44071     2.79515     1.40304
H     -1.31775     2.36513     1.39374
O      0.93337    -3.80053     0.79108
H      0.24583    -3.11159     0.92012
O      1.41427    -3.54878    -0.52725
H      2.02752    -2.80718    -0.38430
O      1.10418    -0.18476     2.52238
H      1.88763    -0.75665     2.38026
O      1.52254     0.93943     1.75302
H      0.77989     1.57261     1.81593
O      0.41055    -1.24056    -2.61427
H     -0.10681    -0.41668    -2.50444
O     -0.40556    -2.17615    -1.89827
H      0.26319    -2.81796    -1.58290
