 32
-1213.303321369836
O      2.96113    -1.27253     0.82302
H      2.61178    -1.65585     0.00243
O      3.85445    -0.26913     0.31652
H      3.35983     0.54254     0.50039
O     -1.06346    -1.79458     0.10134
H     -0.72303    -1.48347     0.95747
O     -0.19595    -1.04602    -0.76115
H     -0.79553    -0.37863    -1.17749
O     -1.53695     0.91265    -1.87337
H     -1.33909     1.73902    -1.39682
O     -2.95148     0.99296    -2.05523
H     -3.26531     0.45836    -1.30918
O     -1.63725     2.37189     0.59205
H     -2.08881     1.57857     0.92865
O     -0.58202     2.54440     1.53985
H      0.17162     2.66155     0.94360
O      1.57074     1.44692    -0.05570
H      1.03010     0.67552     0.18746
O      1.52303     1.43789    -1.46957
H      1.88121     0.56064    -1.68721
O      1.29748    -2.39767    -2.47278
H      0.59077    -2.06191    -1.88760
O      2.34941    -1.51361    -2.03888
H      3.14046    -1.91809    -2.41055
O      0.06405    -0.16088     1.92085
H     -0.12758     0.73800     2.23995
O      0.87468    -0.73481     2.94982
H      1.69014    -0.87487     2.44418
O     -2.95747     0.14257     1.35337
H     -3.71911     0.08309     1.93833
O     -3.42374    -0.54911     0.19329
H     -2.70188    -1.20034     0.09330
