 40
-1516.6463798025097
O      3.67411     0.60287     2.09883
H      2.92394     1.15074     1.83017
O      3.07159    -0.63750     2.44866
H      2.20412    -0.38483     2.82766
O      1.39889     2.51471    -0.48971
H      0.53473     2.95943    -0.54357
O      1.33197     1.92739     0.81376
H      1.05838     1.02107     0.55750
O     -2.32351     0.15318     1.52856
H     -1.77996    -0.57425     1.88736
O     -1.49216     1.26305     1.89684
H     -1.70167     1.89379     1.18306
O      0.54689    -0.04596     3.00227
H     -0.01140     0.69999     2.70071
O     -0.27713    -1.15546     2.62140
H      0.34532    -1.71482     2.12260
O     -1.03081     3.68812    -0.77096
H     -1.34579     4.55507    -0.50368
O     -2.03988     2.85223    -0.21392
H     -2.22954     2.25079    -0.96926
O     -1.30333    -2.15951    -0.25170
H     -0.78520    -1.33652    -0.29077
O     -0.42627    -3.07432    -0.90711
H     -0.40153    -2.71781    -1.81376
O     -3.39032     0.37877    -1.23871
H     -3.04303     0.12916    -0.36865
O     -2.20843     0.82411    -1.89006
H     -2.02170     0.09548    -2.51712
O      2.50792    -2.14271     0.35109
H      2.95457    -1.69176     1.10552
O      1.33213    -2.61996     1.01293
H      0.78705    -2.95792     0.26448
O      1.27496     0.27190    -1.88755
H      1.48706     1.19275    -1.62691
O      0.95964    -0.22693    -0.57842
H      1.66555    -0.90324    -0.38546
O     -0.19531    -1.64033    -3.24496
H      0.25537    -0.83819    -2.92058
O     -1.46306    -1.11715    -3.61923
H     -1.47762    -1.26166    -4.56988
