 32
-1213.3147975514883
O      1.02399     1.83099     2.15754
H      0.18758     1.93161     2.63025
O      0.63260     0.83552     1.20630
H      1.07391     1.11903     0.38459
O      0.88008    -1.25591    -2.42692
H      0.60790    -1.97355    -1.81713
O     -0.39051    -0.63205    -2.66099
H     -0.12973     0.30986    -2.78287
O      0.33750     1.93029    -2.61104
H      1.29969     1.96623    -2.46423
O     -0.13639     2.47880    -1.37488
H     -0.78418     1.80950    -1.08007
O     -1.76808    -0.61002    -0.38367
H     -1.29351    -0.71015    -1.24307
O     -1.92830     0.80918    -0.31915
H     -2.03755     0.96234     0.64270
O      2.41178     0.50066    -1.09454
H      1.97443    -0.16939    -1.66159
O      2.93346     1.39046    -2.08859
H      3.65180     1.79624    -1.59527
O      0.01893    -2.98507    -0.60412
H     -0.31114    -3.88673    -0.67151
O      1.15100    -3.11738     0.25670
H      0.80310    -2.70035     1.07066
O     -1.22810    -1.47726     2.08491
H     -1.33691    -1.29033     1.12789
O      0.18296    -1.53635     2.25558
H      0.46311    -0.65324     1.92484
O     -1.57354     0.88298     3.25362
H     -1.46656    -0.05564     2.96894
O     -2.42206     1.38418     2.22141
H     -3.28291     1.41515     2.65172
