 24
-909.9807833052909
O      1.30419    -2.33247     0.90982
H      1.53613    -1.66080     0.23001
O     -0.01196    -2.70741     0.49351
H      0.14909    -3.50398    -0.02352
O     -1.10879    -0.50402    -1.73487
H     -0.98935     0.45967    -1.80359
O     -1.49243    -0.63878    -0.36555
H     -0.87070    -1.32037    -0.03568
O      1.79971    -0.37034    -0.84308
H      1.59543     0.52253    -1.17787
O      1.49831    -1.18839    -1.97456
H      0.52537    -1.12447    -1.96099
O      1.07920     2.10832    -1.68798
H      1.31483     2.84105    -2.26399
O     -0.34699     2.14852    -1.72005
H     -0.54243     2.36131    -0.77539
O      0.81444    -0.27956     2.88438
H      0.97036    -1.12177     2.43233
O     -0.51771    -0.01374     2.44612
H     -1.01658     0.02847     3.27043
O     -0.80754     2.11392     0.85785
H     -0.51689     1.36211     1.41275
O     -2.16437     1.77581     0.57360
H     -2.04892     0.86519     0.24442
