 20
-758.2997801377886
O     -1.92296     0.45704     0.72980
H     -2.06161    -0.38933     1.18781
O     -1.59144    -0.02908    -0.58187
H     -0.67894    -0.33473    -0.44128
O      0.95684    -1.58916    -1.04875
H      1.48141    -0.79840    -1.27076
O      0.59244    -1.24239     0.29683
H      0.16634    -2.06540     0.57527
O      0.54645     1.86476     0.66713
H     -0.39319     1.61008     0.72486
O      0.47222     3.27439     0.42844
H      0.96663     3.60197     1.18497
O      3.47534     0.96934    -0.98164
H      3.80936     1.46629    -1.73349
O      2.09704     0.85604    -1.32460
H      1.66619     1.32514    -0.58177
O     -1.87567    -2.76822     0.28875
H     -1.99958    -2.05226    -0.35502
O     -2.32037    -2.12122     1.48378
H     -3.21002    -2.47651     1.58741
