 24
-909.9778492044295
O     -0.76794    -2.05010     0.23372
H     -0.79440    -1.70650    -0.68074
O     -1.88509    -1.40140     0.84433
H     -1.44300    -1.06600     1.64707
O     -1.14282     1.48380    -0.70701
H     -0.60116     2.08936    -0.17727
O     -2.34447     1.37084     0.05605
H     -2.35079     0.42164     0.24968
O      1.58515     0.10098    -0.52489
H      1.76697    -0.52666     0.19252
O      2.28338    -0.44505    -1.64334
H      1.54878    -0.48783    -2.27058
O     -0.96582    -1.38918    -2.33599
H     -1.71748    -1.47983    -2.92976
O     -0.40095    -0.13668    -2.70968
H     -0.67405     0.42448    -1.95553
O      0.05011    -0.51163     2.42922
H      0.35432     0.36562     2.14027
O      1.10311    -1.34340     1.92917
H      0.57289    -1.89726     1.32766
O      1.11873     1.86575     1.85867
H      1.86784     2.21458     2.35249
O      1.27685     2.47830     0.57862
H      1.56057     1.70304     0.05296
