 24
-909.9793807682564
O     -2.10267    -2.66745     0.09527
H     -2.27410    -3.46887     0.59902
O     -2.80767    -1.66859     0.83269
H     -2.06950    -1.19559     1.26194
O     -0.39025    -1.22478    -1.34174
H     -0.97500    -1.81946    -0.82191
O      0.87308    -1.42483    -0.69162
H      1.43658    -0.80264    -1.19496
O      2.16519     0.51444    -1.94156
H      2.73123     0.65775    -2.70639
O      3.08897     0.63570    -0.86180
H      2.56998     1.19169    -0.26039
O     -2.07074     1.60323    -1.11907
H     -2.23709     2.21557    -1.84082
O     -0.65996     1.42164    -1.25032
H     -0.58652     0.44122    -1.33472
O     -0.73072    -0.30352     2.01495
H     -0.68311     0.65202     1.81226
O      0.64684    -0.66200     1.86160
H      0.66664    -1.00901     0.94700
O      1.54353     1.75001     1.24821
H      1.48308     0.87849     1.68598
O      0.14756     2.06832     1.21405
H     -0.07367     1.96640     0.26542
