 32
-1213.31309701438
O      1.22664     1.80387     1.70148
H      2.14891     1.48967     1.77606
O      0.51146     0.80692     2.44147
H     -0.40828     0.99116     2.14165
O      0.20378    -0.50372    -2.19661
H     -0.26233    -1.11243    -1.59989
O      1.51883    -0.49805    -1.63218
H      1.61095     0.45854    -1.45583
O     -2.80512    -0.07287    -2.42239
H     -3.40792     0.19601    -3.12249
O     -3.67704    -0.71805    -1.49761
H     -3.58283    -0.14286    -0.72274
O     -0.66383     1.83488    -1.15853
H     -0.69921     1.10180    -1.79547
O      0.74993     1.91917    -0.94117
H      0.80954     1.98101     0.03312
O      3.53338     1.06043     0.03974
H      4.45659     1.21747    -0.18449
O      3.63245     0.58530     1.38661
H      3.29948    -0.33009     1.26482
O     -1.01812    -1.74837    -0.12411
H     -0.34314    -2.04774     0.52702
O     -2.08809    -2.66993     0.01526
H     -2.69696    -2.27115    -0.62194
O      2.21525    -1.59340     0.73774
H      1.87946    -1.28351    -0.12735
O      1.03663    -1.66717     1.53925
H      0.97418    -0.76683     1.92704
O     -1.79151     1.28394     1.21320
H     -1.54499     1.52978     0.29428
O     -2.56181     0.08609     1.05304
H     -1.89270    -0.58491     0.80938
