 24
-909.9758374374996
O     -2.36013     0.43790    -0.10513
H     -2.08242    -0.45403    -0.37825
O     -3.18207     0.18144     1.02907
H     -2.54030     0.21151     1.75186
O      0.88741     0.06204    -3.09028
H      0.56604     0.48947    -3.88937
O     -0.29259    -0.01033    -2.28366
H     -0.13128     0.73235    -1.65842
O      3.18195    -0.17189    -1.02766
H      2.55734     0.02903    -1.73810
O      2.39707     0.07737     0.13409
H      1.99167    -0.78934     0.31214
O     -0.81671    -1.97829     0.15591
H     -0.62197    -1.74894     1.07563
O      0.52159    -2.04669    -0.37827
H      0.36945    -1.69245    -1.26583
O      0.26960    -0.30294     2.26596
H      0.22368     0.51896     1.72664
O     -0.89379    -0.14715     3.08483
H     -0.52008     0.13944     3.92312
O      0.53083     1.81675    -0.49649
H      1.32384     1.31537    -0.19556
O     -0.26577     1.80851     0.69645
H     -1.12099     1.46395     0.34901
