 36
-1364.9795989816007
O      1.80456     1.76061     0.66946
H      1.73069     2.03539    -0.26213
O      3.09890     1.15838     0.71282
H      2.91619     0.45580     1.36194
O     -1.75313    -0.30102    -1.43757
H     -0.84437    -0.65690    -1.32659
O     -1.50639     1.10194    -1.40884
H     -1.40771     1.27567    -0.44548
O      0.89115    -0.76774     2.81597
H      1.04551    -1.30204     3.60111
O      2.09882    -0.94767     2.08611
H      1.77170    -1.46031     1.31714
O      3.23026    -0.33801    -1.54616
H      3.41068     0.28641    -0.81347
O      3.41793     0.47110    -2.71141
H      2.49808     0.65767    -2.93285
O     -2.62551    -2.56872     1.65957
H     -3.30407    -2.17761     1.09105
O     -1.47419    -1.97352     1.07996
H     -1.40491    -1.13894     1.58369
O     -1.03307     1.50099     1.17122
H     -0.09392     1.30533     1.34548
O     -1.71328     0.53016     1.96763
H     -2.61815     0.60627     1.60272
O      1.20551     2.61823    -1.83050
H      1.62246     3.18914    -2.48250
O      0.78699     1.52132    -2.65095
H     -0.12444     1.37237    -2.29900
O     -3.96521    -0.80465     0.02187
H     -3.22979    -0.58125    -0.58364
O     -4.08882     0.42425     0.72852
H     -5.04312     0.51067     0.80788
O      0.72666    -1.18167    -1.12782
H      1.65472    -0.90802    -1.34341
O      0.93389    -2.08693    -0.03805
H      0.01705    -2.21905     0.28139
