 36
-1364.9747358364837
O     -0.98387    -0.66934     1.74337
H     -0.35431    -0.39185     1.03624
O     -0.59762    -2.02107     1.96638
H      0.30304    -1.91508     2.32959
O      0.52004     0.79478     3.58844
H      0.78266     1.12804     4.45524
O      0.06584     1.96917     2.92332
H     -0.88822     1.80382     2.89107
O      0.06091    -2.79227    -0.53438
H     -0.20905    -2.58296     0.38132
O      1.46193    -2.46426    -0.54252
H      1.49568    -1.95133    -1.37139
O      0.68989     1.27605    -3.91911
H     -0.14070     1.72308    -3.68860
O      1.68876     2.09306    -3.30986
H      1.86811     1.60760    -2.49104
O     -1.87636     1.18181    -2.51675
H     -1.51548     0.26870    -2.49253
O     -1.44571     1.69281    -1.25164
H     -2.23666     1.60933    -0.69659
O     -2.81761     1.83645     2.20470
H     -3.58545     1.73074     2.77368
O     -3.09454     0.89575     1.16658
H     -2.45120     0.19169     1.38859
O     -0.68340    -1.21037    -2.50690
H     -0.66664    -1.79859    -1.72545
O      0.73269    -1.07304    -2.71078
H      0.75836    -0.25625    -3.25214
O      2.34970    -0.31301     1.88684
H      1.68968     0.05291     2.50411
O      2.11557    -1.72400     1.97662
H      2.05554    -1.97066     1.03149
O      1.79721     0.53569    -0.58503
H      2.21556     0.28132     0.26212
O      0.45385     0.14684    -0.26857
H     -0.07135     0.83216    -0.72782
