 24
-909.9772826404715
O     -0.22746    -3.22197    -0.30876
H     -0.97316    -2.62917    -0.53101
O      0.88903    -2.47184    -0.78382
H      1.13506    -2.92852    -1.59621
O     -2.41646    -0.66576     0.44936
H     -1.59978    -0.89146     0.93704
O     -2.23199    -1.40128    -0.76483
H     -1.89449    -0.68024    -1.33680
O      1.19480     0.13007    -0.50502
H      1.11834    -0.84614    -0.50567
O      2.58599     0.29993    -0.77441
H      2.67223     1.20241    -0.43805
O     -1.63109     1.68874    -0.51875
H     -2.10396     1.01191     0.00343
O     -1.12006     0.85847    -1.57540
H     -0.20943     0.69958    -1.25787
O      0.43230     0.02900     2.38533
H      0.92238     0.37517     1.62210
O     -0.17829    -1.12885     1.80744
H      0.28416    -1.85764     2.23837
O      0.88116     3.19764    -0.08430
H      0.03200     2.73343    -0.01562
O      1.64252     2.50238     0.90973
H      1.79928     3.18910     1.56780
