 32
-1213.309333187823
O      2.69174     0.01932     2.07275
H      1.79706    -0.35359     2.15632
O      2.44144     1.25054     1.39943
H      1.85153     1.72270     2.00889
O      0.35923    -2.07733    -0.38748
H      1.08058    -1.48360    -0.69524
O     -0.61345    -1.89157    -1.42121
H     -0.94168    -0.99387    -1.23469
O     -1.04804     0.99535    -1.27328
H     -0.08821     1.18888    -1.27050
O     -1.55840     1.97229    -0.36313
H     -2.40045     1.54689    -0.14433
O      0.37979     2.69099     2.44768
H      0.12047     3.15951     3.24520
O     -0.77459     1.89327     2.21317
H     -0.95220     2.06979     1.26489
O      1.61658     1.02168    -1.13442
H      2.00600     1.06850    -0.23257
O      1.96850    -0.31236    -1.52257
H      1.75407    -0.32059    -2.48167
O      1.09406    -0.76009    -3.97073
H      1.47237    -0.84631    -4.85095
O      0.97215    -2.13298    -3.58392
H      0.28129    -2.06137    -2.89936
O     -0.94480    -1.40065     1.84656
H     -0.46728    -1.75730     1.06269
O      0.07164    -0.63433     2.48947
H     -0.33717     0.25092     2.48009
O     -3.02910     0.02624     1.02808
H     -2.29714    -0.51629     1.40192
O     -3.50175    -0.84496     0.00066
H     -4.33043    -1.15383     0.37889
