 32
-1213.3079139666065
O      2.48249    -1.06108     1.48262
H      1.59315    -1.46612     1.37405
O      3.14327    -1.47419     0.28540
H      3.81779    -2.06295     0.63748
O      1.16299    -1.73422    -2.20075
H      1.79435    -1.71369    -1.46764
O      0.15744    -2.61144    -1.68754
H     -0.66612    -2.17863    -1.98582
O     -2.24688    -1.50128    -2.20590
H     -2.93635    -1.75451    -2.82641
O     -2.06569    -0.12311    -2.51960
H     -2.28242     0.30856    -1.66414
O     -1.53603     1.68319     2.21161
H     -2.11390     2.07343     2.87239
O     -1.14094     0.46367     2.86072
H     -1.13222    -0.14867     2.09155
O      0.97414     0.58213    -0.53770
H      1.04893     1.40945    -0.00375
O      0.64229     1.06606    -1.85505
H      0.68645     0.22441    -2.33268
O     -0.77938    -0.94769     0.64960
H     -0.14259    -0.36233     0.17231
O      0.04008    -2.09293     0.91684
H      0.06755    -2.49415     0.01924
O      2.34131     1.96440     2.09458
H      2.44060     1.03796     1.82619
O      1.16526     2.36464     1.39347
H      0.46117     2.24973     2.05124
O     -1.86460     2.60790    -0.96394
H     -1.07870     2.28069    -1.42881
O     -2.34737     1.42036    -0.34090
H     -2.03231     1.52491     0.57925
