 20
-758.3043247399733
O     -1.61586    -1.33217     1.29182
H     -2.46062    -0.87854     1.18922
O     -1.17312    -1.37147    -0.07891
H     -0.20255    -1.33088     0.04301
O      3.91532    -0.25827    -1.74358
H      3.06789     0.19024    -1.60439
O      3.93980    -1.11494    -0.59166
H      4.64913    -0.72791    -0.06726
O     -0.50657     1.75448     0.62035
H     -1.39558     1.62280     0.25549
O     -0.65755     1.36182     1.98759
H     -0.57549     0.39733     1.92476
O      1.42459    -0.89168     0.29062
H      2.32331    -1.17020     0.03338
O      1.24791     0.19640    -0.63021
H      0.69523     0.80339    -0.09278
O     -2.73190     0.82389    -1.03095
H     -2.29127    -0.03699    -1.08444
O     -3.84372     0.48764    -0.19242
H     -4.58555     0.74574    -0.74766
