 36
-1364.981206653228
O      1.01315     2.03462     0.51566
H      1.64161     1.28702     0.36064
O      1.29669     2.46306     1.84731
H      1.04181     1.64892     2.31830
O     -0.91084    -2.36300    -0.77371
H     -1.67299    -1.74992    -0.71003
O     -0.50775    -2.53921     0.59219
H     -0.59979    -1.63485     0.96564
O     -0.70477    -0.02018     1.47691
H     -1.15355     0.83652     1.63844
O      0.32529     0.06019     2.46331
H      1.03409    -0.44665     2.00919
O      2.20431    -1.16147     1.01651
H      2.44403    -1.99300     0.55106
O      2.47095    -0.17127     0.00622
H      2.08100    -0.57623    -0.79967
O     -1.54715     2.46976     2.01313
H     -0.74139     2.99194     2.15171
O     -2.50273     3.44127     1.57566
H     -2.45176     3.32251     0.61640
O     -1.31194     2.04954    -0.68860
H     -0.45822     2.15132    -0.18775
O     -0.91513     2.49916    -1.97376
H     -0.26898     1.81189    -2.20217
O      1.14353    -1.28631    -2.11422
H      0.43393    -1.80987    -1.66863
O      0.47098    -0.14424    -2.63889
H     -0.45371    -0.43185    -2.70708
O     -2.59732    -0.22308    -0.91527
H     -2.12263     0.58189    -0.60624
O     -2.50028    -0.05116    -2.33473
H     -3.08380     0.69919    -2.49730
O      2.61084    -3.29621    -0.45694
H      3.11223    -3.88186    -1.03393
O      1.97212    -4.19169     0.44729
H      1.06413    -3.85954     0.38397
