 32
-1213.3132024848708
O      1.83810    -0.44923     3.42736
H      2.01096    -1.08640     4.12480
O      0.63813    -0.97203     2.87375
H      0.18637    -0.13532     2.60404
O      0.08743     0.36082    -4.15439
H      0.23683     0.55535    -5.08437
O     -1.11351     1.10746    -3.89250
H     -1.22822     0.86336    -2.95572
O     -2.62899    -2.15538     0.30320
H     -1.70296    -2.46639     0.32301
O     -2.93530    -2.11172     1.69710
H     -3.69347    -2.70296     1.73285
O      1.54264     1.08038    -1.99503
H      1.12492     0.88076    -2.86306
O      0.93233     2.32756    -1.66018
H      0.11093     2.02224    -1.24295
O      2.36465     1.11813     0.52398
H      2.25134     1.06913    -0.44855
O      2.55685    -0.26250     0.85100
H      2.49404    -0.24154     1.82484
O     -1.23440     0.36892    -1.31974
H     -0.56523    -0.24459    -0.94181
O     -2.18183     0.48477    -0.25470
H     -2.50882    -0.43508    -0.16782
O     -0.62730     1.08550     1.86435
H     -1.24572     0.92610     1.11802
O      0.07611     2.26023     1.44931
H      0.91872     1.88833     1.14077
O      0.48962    -1.35832    -0.36775
H      1.30872    -0.98627     0.04525
O      0.06931    -2.36946     0.55612
H      0.22257    -1.93650     1.41221
