 32
-1213.3146587126325
O      2.39139    -0.49512     1.68845
H      1.98878    -1.24339     1.21139
O      2.49863    -0.99430     3.02090
H      3.45217    -1.07411     3.11375
O      0.76654    -1.16633    -3.33404
H      0.60681    -1.37388    -4.25908
O     -0.02243    -2.13702    -2.65380
H     -0.86140    -1.62769    -2.52867
O     -2.07778    -0.63015    -2.08482
H     -2.10477     0.14359    -1.46743
O     -2.73104    -1.64226    -1.32233
H     -2.10237    -1.76004    -0.59609
O     -1.42210     1.03758     2.34052
H     -0.54507     1.38989     2.58978
O     -1.27558    -0.36203     2.59923
H     -0.82070    -0.67199     1.79732
O      1.47576     0.70196    -0.89984
H      1.49746     1.50660    -0.33609
O      0.49863     1.03545    -1.88796
H      0.56644     0.24422    -2.46609
O     -0.03658    -1.17047     0.20632
H      0.46408    -0.42749    -0.20278
O      0.82055    -2.28016    -0.05980
H      0.66951    -2.37420    -1.02051
O      1.11683     1.84406     2.19594
H      1.64639     1.04293     1.99854
O      1.21261     2.57918     0.96954
H      0.28849     2.82698     0.81434
O     -1.27236     2.45319    -0.51658
H     -0.65729     2.06352    -1.16125
O     -2.02522     1.26520    -0.23752
H     -1.92085     1.16851     0.73952
