 32
-1213.3042670028237
O      3.16403    -0.87491    -0.38263
H      2.29643    -1.23347    -0.65572
O      3.24633     0.31777    -1.17485
H      3.01491     0.99526    -0.52421
O     -0.14971    -1.36782     0.05782
H      0.44390    -1.44545     0.84134
O      0.72719    -1.78636    -0.99126
H      0.52861    -1.15255    -1.70494
O     -2.39955    -0.07285    -2.95756
H     -3.15598     0.06328    -3.53807
O     -2.16894     1.27083    -2.50208
H     -2.24371     1.13475    -1.52915
O      1.08484     1.32574     0.63658
H      0.74168     1.35403    -0.28509
O      0.17616     2.16852     1.32272
H     -0.31378     1.51960     1.84944
O      1.03624     0.33557    -2.68027
H      1.97157     0.37089    -2.40999
O      0.54308     1.46653    -1.95553
H     -0.32669     1.60893    -2.37155
O      1.91488    -0.29382     2.61758
H      1.67468     0.31271     1.88875
O      1.60931    -1.56206     2.02237
H      2.46080    -1.82398     1.64518
O     -2.40260    -0.16895     3.17489
H     -2.81400    -0.58945     2.40995
O     -1.02435    -0.21894     2.78214
H     -0.59490    -0.68626     3.51381
O     -3.06499    -0.57426     0.04507
H     -2.96104    -0.98939    -0.82405
O     -2.05478     0.43630     0.00220
H     -1.24421    -0.11548     0.11995
