 32
-1213.3123412650252
O     -0.08286     0.23962     2.20342
H      0.06577    -0.71931     2.33171
O      1.16463     0.66927     1.64012
H      1.07726     0.42647     0.69524
O     -1.81385     1.49675    -2.11929
H     -1.79998     2.02029    -2.92575
O     -1.07353     0.33685    -2.47897
H     -0.26048     0.44104    -1.93776
O      2.30057    -2.12674    -1.20085
H      2.82713    -2.67715    -1.78812
O      2.87370    -2.40370     0.08217
H      2.08814    -2.75184     0.54084
O      0.96425     3.30137     0.88774
H      1.15981     2.43681     1.29116
O      0.21205     2.90438    -0.25525
H     -0.64167     2.64208     0.14729
O      1.12522     0.25276    -1.01416
H      1.66546    -0.55394    -1.16995
O      2.02639     1.31130    -1.33056
H      1.48214     2.05158    -0.97461
O     -2.08603    -1.82894    -1.09947
H     -1.83904    -1.19389    -1.79009
O     -1.32670    -1.28278    -0.01971
H     -1.89914    -0.54311     0.29022
O      0.25958    -2.44203     2.42657
H     -0.37848    -3.04395     2.82083
O      0.37918    -2.95850     1.10235
H     -0.23898    -2.35996     0.61636
O     -2.66087     0.98857     0.36042
H     -2.49690     1.31021    -0.54599
O     -1.86678     1.91108     1.11791
H     -1.32767     1.30169     1.66176
