 20
-758.3023447611878
O     -1.86117    -2.14946     2.98281
H     -1.91607    -1.24728     2.63371
O     -1.52506    -2.85558     1.77721
H     -0.60946    -3.10494     1.94088
O      2.62900     1.48689    -0.84722
H      3.58539     1.36414    -0.84453
O      2.30843     1.36768    -2.23638
H      1.81462     0.53315    -2.22106
O     -1.43063    -0.07290     1.06272
H     -0.45700    -0.14778     1.00007
O     -1.79164    -0.94043    -0.02295
H     -1.76811    -1.79707     0.44471
O      0.65190    -0.75697    -1.11095
H     -0.31791    -0.74340    -1.02238
O      1.02860    -0.37764     0.22868
H      1.50390     0.44795     0.02678
O     -0.51778     2.24290    -1.71298
H      0.41101     2.34667    -1.94776
O     -0.42710     2.39379    -0.28696
H     -1.08057     1.74760     0.00623
