 40
-1516.6417703010613
O      0.22987     1.65338     2.27891
H      1.07663     1.16858     2.19808
O      0.44390     2.80859     1.47043
H      0.36007     2.44611     0.55790
O      0.96326    -1.73337    -1.53063
H      1.33078    -1.37650    -0.69947
O      0.84401    -3.12550    -1.24696
H     -0.12031    -3.26735    -1.34104
O     -1.93650    -0.33685    -1.76173
H     -2.42754     0.49489    -1.67917
O     -0.74624     0.11407    -2.40904
H     -0.14559    -0.64069    -2.24540
O     -1.81209     0.30765     1.20415
H     -1.06533     0.75875     1.66962
O     -1.18911    -0.88829     0.74082
H     -1.51127    -0.92955    -0.18151
O     -2.35434     3.26090    -0.23081
H     -3.13199     3.81164    -0.35656
O     -2.88931     1.97806    -0.53677
H     -2.54677     1.45853     0.22272
O      0.43279     2.13005    -1.08380
H     -0.03083     1.42930    -1.59524
O     -0.04201     3.33417    -1.69357
H     -0.85912     3.44945    -1.18351
O      3.23043     3.44411     0.70003
H      2.41653     3.39464     1.22269
O      3.14907     2.25726    -0.08863
H      2.41620     2.44995    -0.69605
O      1.07062    -3.27580     1.42383
H      1.07339    -3.44170     0.46356
O     -0.33096    -3.27170     1.68753
H     -0.58329    -2.35643     1.47043
O      2.49648     0.31583     1.62973
H      2.90420     0.95052     0.99954
O      2.02014    -0.68863     0.73091
H      1.98546    -1.47085     1.30761
O     -1.76902    -3.41921    -1.03756
H     -2.50865    -3.66370    -1.60239
O     -1.52647    -4.62928    -0.32217
H     -1.18593    -4.25225     0.51124
