 32
-1213.309987582608
O      1.32415    -1.65609     0.72458
H      1.04273    -2.56189     0.92738
O      1.98513    -1.24385     1.91815
H      2.54516    -0.53907     1.55915
O     -1.11292    -1.48853    -1.38222
H     -1.73986    -0.82630    -1.00988
O      0.07916    -0.71367    -1.45566
H      0.53432    -0.94442    -0.62328
O     -1.66771    -2.94767     1.19013
H     -2.49320    -3.38646     0.96370
O     -0.74412    -3.50882     0.26500
H     -0.83987    -2.86963    -0.47856
O     -0.36864     2.40040    -0.38669
H      0.30092     2.40769    -1.09722
O      0.41610     2.25188     0.79566
H     -0.02207     1.49794     1.23507
O      2.71625     0.69390    -0.81442
H      3.21285     1.29985    -1.37652
O      2.89567     1.24288     0.49431
H      2.03851     1.69774     0.63107
O      1.00836     2.55076    -2.67486
H      0.57263     3.12187    -3.31634
O      1.08525     1.31318    -3.37566
H      0.64176     0.72442    -2.74451
O     -1.59272    -0.53695     2.41243
H     -1.51583    -1.35806     1.89344
O     -0.34482     0.10367     2.15174
H      0.33358    -0.56885     2.34589
O     -3.19646     0.84214     0.64932
H     -2.66074     0.44669     1.35568
O     -2.36825     0.62693    -0.49285
H     -1.74293     1.37968    -0.45383
