 32
-1213.312912790139
O      3.33879     1.03479     0.76426
H      3.69021     1.42224     1.57092
O      2.46055     2.06213     0.29538
H      1.57879     1.65407     0.44645
O     -1.94344    -1.88150    -0.03839
H     -1.42232    -1.87473     0.78802
O     -0.94520    -1.91497    -1.05811
H     -1.17505    -1.12319    -1.57955
O     -1.19622     0.53493    -2.20280
H     -0.23707     0.67606    -2.34226
O     -1.53667     1.70078    -1.44361
H     -2.39521     1.40649    -1.05038
O      0.03657     0.95623     0.54802
H     -0.53403     1.25899    -0.20222
O     -0.70578     1.35611     1.70872
H     -0.47359     0.60783     2.27997
O      2.19456     1.52856    -2.62866
H      2.46909     1.93527    -1.79139
O      1.44032     0.42222    -2.13056
H      2.01115    -0.34983    -2.26949
O      1.40405    -1.87319     0.23116
H      0.67996    -1.91611    -0.43115
O      2.57688    -1.63308    -0.53105
H      2.87929    -0.81306    -0.11787
O     -0.78835    -1.96671     2.37354
H     -0.57851    -2.69441     2.96764
O      0.31509    -1.08541     2.53832
H      0.82245    -1.28780     1.72377
O     -3.31518     0.74036     1.24792
H     -2.39120     1.03647     1.34328
O     -3.37048     0.37379    -0.13092
H     -3.01097    -0.53469    -0.10761
