 32
-1213.3099125037882
O      0.06839    -2.37505     2.11811
H      0.42343    -2.06882     1.26176
O     -0.20073    -1.13082     2.76795
H      0.62538    -0.63818     2.64996
O     -0.41523    -0.84374    -0.92222
H     -0.95728    -0.27449    -0.32063
O      0.74384    -1.10444    -0.10679
H      1.33547    -0.35538    -0.34769
O     -1.64019     0.31850     1.07576
H     -1.35744    -0.22586     1.84102
O     -2.94320    -0.15835     0.77025
H     -2.85351    -1.13062     0.88959
O      1.45778     1.11159     1.92850
H      2.16527     1.28168     1.28044
O      0.59519     2.23674     1.72453
H     -0.24319     1.78191     1.55482
O      2.34070     0.87622    -0.89697
H      1.79464     1.68351    -1.07162
O      3.31784     1.39556    -0.00261
H      4.11093     0.96734    -0.33387
O      0.86563    -0.26683    -3.20898
H      0.29604    -0.47254    -2.44142
O      0.32182     0.97802    -3.63944
H     -0.16157     0.73542    -4.43468
O      0.64364     2.86842    -1.00324
H      0.47407     3.01703    -0.05996
O     -0.51788     2.12181    -1.38841
H     -0.23129     1.80972    -2.27171
O     -2.09657    -3.23622    -0.21173
H     -1.65900    -2.46526    -0.60004
O     -2.44122    -2.76030     1.08847
H     -1.61400    -2.89337     1.59033
