 32
-1213.3092307307747
O      0.56212    -2.52141     0.54585
H      0.21052    -1.80269     1.12404
O      1.49162    -3.15525     1.41209
H      0.99269    -3.93257     1.68080
O     -0.59791    -0.03380    -1.66956
H     -0.31185     0.73767    -1.14755
O      0.60844    -0.75998    -1.91287
H      0.67717    -1.32460    -1.12466
O     -1.85292    -2.88031    -1.11770
H     -1.00830    -3.09826    -0.70034
O     -2.19278    -1.70016    -0.39830
H     -1.80436    -1.00863    -0.97519
O     -0.44459    -0.53205     1.94893
H     -0.17858     0.39550     1.76713
O     -1.87088    -0.48981     1.96203
H     -2.07653    -1.02188     1.16765
O      1.83219     2.35589    -2.45393
H      1.55736     2.70307    -1.59583
O      2.51732     1.15930    -2.08702
H      1.83170     0.47102    -2.21789
O      2.39309    -0.16251     0.71100
H      3.10593    -0.61267     1.17964
O      2.90551     1.16384     0.53937
H      2.96817     1.19849    -0.44464
O     -0.03266     2.39401     0.07348
H     -0.93520     2.65323     0.31718
O      0.47223     1.93609     1.33656
H      1.42429     1.82549     1.13225
O     -2.68398     1.88080     0.94543
H     -2.42205     1.09851     1.47664
O     -3.02477     1.25053    -0.29277
H     -3.98028     1.15810    -0.21923
