 36
-1364.9782220955774
O      1.55269     2.36240     1.71289
H      1.93508     1.49459     1.45430
O      1.84025     2.40047     3.10854
H      2.27574     3.25344     3.18455
O     -2.25169    -1.17964    -1.20514
H     -1.81882    -0.80748    -2.00383
O     -1.13166    -1.11229    -0.31883
H     -0.68177    -1.96914    -0.46414
O     -0.69429     0.23190     2.06974
H     -1.64527     0.30637     1.82235
O     -0.69236     0.51123     3.46733
H     -0.11925     1.28651     3.47834
O      1.46682    -1.06634     1.29422
H      0.65954    -0.55274     1.54865
O      2.33192    -0.04258     0.79969
H      2.27662    -0.15668    -0.17194
O     -3.13340     0.29902     0.92377
H     -3.10078    -0.25679     0.12022
O     -3.79930     1.48289     0.48075
H     -3.03746     2.03306     0.25402
O     -0.83349     2.30342     0.05389
H     -0.19196     2.54081     0.74159
O     -0.09240     1.28874    -0.61387
H     -0.51177     0.45280    -0.29835
O      1.85613    -1.37933    -2.55911
H      1.95797    -2.05617    -1.86914
O      2.30303    -0.20879    -1.86428
H      1.83677     0.47541    -2.36963
O     -0.00549     0.75950    -3.19309
H     -0.23095     1.07895    -2.29820
O     -0.60000    -0.54910    -3.19848
H      0.20147    -1.09155    -3.10052
O      1.59859    -3.03824    -0.40557
H      1.58243    -2.35930     0.31778
O      0.21264    -3.36930    -0.47181
H      0.16638    -4.18693     0.03331
