 40
-1516.635162446178
O      3.32248    -0.90621    -0.46193
H      3.22433     0.05005    -0.29184
O      2.34663    -1.42765     0.44069
H      2.86604    -2.01159     1.00393
O      0.34949     1.80247     2.58580
H     -0.46891     1.46664     2.98626
O      1.10887     0.58837     2.46880
H      1.66200     0.78965     1.69664
O      2.39657     1.61680    -0.05266
H      1.62186     1.74383    -0.64549
O      2.62189     2.91032     0.49569
H      1.83728     3.03481     1.04930
O     -0.64679    -1.32277     1.97382
H      0.11156    -0.70423     2.12148
O     -0.03072    -2.60568     1.93095
H     -0.06734    -2.75362     0.97430
O     -3.00948    -0.49357    -0.47777
H     -2.24748    -1.08481    -0.34750
O     -2.74754     0.56862     0.44384
H     -3.13268     0.25726     1.28134
O      2.13437    -1.00538    -2.91421
H      2.70209    -1.03731    -2.12143
O      1.90621     0.40194    -3.03168
H      1.05419     0.41928    -3.48276
O     -2.63981     0.52542    -3.03955
H     -2.81603     0.21355    -2.13750
O     -1.21770     0.44196    -3.12690
H     -1.05375    -0.51080    -2.96822
O     -0.31295    -1.94153    -2.32181
H      0.64314    -1.82870    -2.52087
O     -0.35095    -1.83741    -0.90001
H     -0.03303    -0.92302    -0.71993
O     -0.03869     1.77609    -1.14899
H     -0.50141     1.41591    -1.94022
O     -0.22497     0.67816    -0.24666
H     -1.12689     0.85882     0.10930
O     -1.99122     0.86913     3.68279
H     -2.05592     0.77392     4.63872
O     -2.72771    -0.26093     3.22209
H     -1.99367    -0.81619     2.88033
