 40
-1516.6423177553836
O      3.51298     0.13820     0.71048
H      3.33500    -0.40555    -0.07790
O      3.28148    -0.79716     1.77632
H      2.87859    -0.21269     2.45127
O      1.98294     0.67470     3.59576
H      2.08634     1.62409     3.71509
O      0.57325     0.56627     3.37236
H      0.55161    -0.00174     2.57535
O      1.69756     2.66001    -0.39830
H      0.72914     2.61608    -0.52900
O      1.77555     2.15959     0.94848
H      2.47952     1.48233     0.85794
O     -0.87557     1.98645    -0.43170
H     -1.00708     1.13425    -0.91018
O     -1.15643     1.62756     0.92515
H     -0.30610     1.82106     1.35663
O     -2.00220    -1.85466     0.57755
H     -1.18518    -2.14985     1.01497
O     -2.61794    -1.02139     1.56572
H     -2.16829    -0.17531     1.42482
O      1.45823    -0.06224    -1.19122
H      1.78391     0.83754    -1.36616
O      2.54536    -0.88270    -1.64472
H      2.07727    -1.38692    -2.33490
O     -3.81037     1.22870    -0.45735
H     -3.82895     2.06722     0.01860
O     -4.84979     0.46232     0.15042
H     -4.32561    -0.22574     0.59032
O      1.06202    -2.21411     1.18399
H      1.97814    -1.97417     1.43086
O      0.49065    -0.91017     1.15381
H      0.76477    -0.61118     0.25891
O     -1.39176    -0.37799    -1.57630
H     -1.67920    -1.00615    -0.87701
O     -2.59983    -0.23488    -2.32701
H     -3.08638     0.35422    -1.72001
O      0.59593    -1.38432    -4.44275
H      0.26461    -2.09157    -5.00247
O      0.35925    -1.92946    -3.14146
H     -0.33207    -1.33537    -2.79380
