 40
-1516.6421865971317
O     -0.26812     1.50965    -0.43774
H      0.48442     2.12282    -0.24215
O     -1.33384     2.10263     0.31075
H     -1.67494     1.30449     0.77240
O      1.88513    -0.99737     0.00398
H      1.51951    -1.53135    -0.73461
O      0.68954    -0.68039     0.72305
H      0.31820     0.09273     0.22975
O      2.59598     2.56299     1.30734
H      1.87659     2.15424     1.81639
O      1.93382     2.90156     0.08424
H      2.60565     2.62576    -0.55524
O      3.38886     0.87947    -1.30320
H      2.95189     0.18883    -0.76649
O      2.85404     0.61361    -2.59335
H      3.63302     0.34691    -3.09200
O     -2.20314    -0.44892    -2.80915
H     -1.22594    -0.44842    -2.74341
O     -2.59313     0.37160    -1.70229
H     -1.86888     1.01130    -1.61336
O     -1.39123    -2.85833    -1.19057
H     -1.75466    -2.34357    -0.44616
O     -2.53595    -3.03554    -2.02698
H     -2.57367    -2.16304    -2.45663
O     -2.25007    -0.01678     1.58645
H     -1.65098    -0.46932     2.20628
O     -2.42515    -1.02321     0.58736
H     -2.79024    -0.49879    -0.14834
O      0.82111    -1.91793    -2.26633
H     -0.04051    -2.32082    -1.98954
O      0.44157    -0.55749    -2.49159
H      1.31513    -0.12970    -2.59037
O     -0.48452    -0.91349     3.46810
H     -0.72190    -1.19142     4.35804
O      0.47203    -1.89390     3.06478
H      0.67227    -1.53032     2.17823
O     -0.45557     2.26541     3.08538
H     -0.64113     2.55079     2.17976
O      0.68377     1.42317     2.88495
H      0.34429     0.55968     3.18636
