 36
-1364.9739554650982
O      1.14587     1.70304     2.55928
H      1.83585     1.99053     1.94542
O      0.28747     1.01517     1.64626
H      0.21896     0.12465     2.03961
O     -0.62794    -1.56608     2.74908
H     -0.13842    -2.27711     2.26941
O     -1.97164    -2.04201     2.70825
H     -2.22666    -1.91750     3.62610
O      2.36849     1.91802    -0.37000
H      2.78398     1.06534    -0.57526
O      1.04476     1.61587    -0.82355
H      0.62420     1.32882     0.02026
O     -1.48288     3.03880     0.22355
H     -1.31869     2.27568     0.79466
O     -2.50349     2.55402    -0.64566
H     -2.01460     2.51455    -1.48642
O     -0.72059     2.14775    -2.71971
H      0.04573     1.99575    -2.12304
O     -0.98543     0.82635    -3.18048
H     -0.79964     0.90140    -4.12072
O     -3.23507     0.01754    -0.09349
H     -3.04860     0.96603    -0.24136
O     -1.99070    -0.37386     0.49876
H     -2.25993    -0.78724     1.33979
O      2.84011    -0.68451    -1.17951
H      1.89351    -0.84064    -1.40690
O      3.29914    -2.02078    -1.03455
H      4.25158    -1.89603    -1.07380
O      0.28828    -0.99892    -1.71169
H     -0.34383    -0.39885    -2.15663
O     -0.54758    -1.95153    -1.05143
H     -1.11829    -1.35702    -0.51131
O      1.80277    -1.93372     1.24517
H      2.40744    -2.08431     0.49738
O      0.83105    -2.97285     1.06242
H      0.40102    -2.70928     0.22041
