 16
-606.6366508743247
O     -1.81920    -0.45343     0.69820
H     -2.38557    -0.77874     1.40467
O     -1.85970     0.96308     0.91331
H     -0.91341     1.16963     0.88185
O      1.10703     1.31794     0.68879
H      1.37865     0.55352     0.13892
O      1.59209     0.91574     1.97542
H      2.27469     1.57706     2.12377
O      1.35076    -1.00910    -0.70987
H      0.56546    -0.99196    -1.28853
O      0.97588    -1.97395     0.28485
H      0.39825    -1.45519     0.86019
O     -1.02542    -0.49447    -1.90977
H     -1.52830    -0.45116    -1.08076
O     -0.50460     0.84151    -1.92971
H     -0.05861     0.84509    -2.77973
