 24
-909.9763518174518
O     -2.95082    -1.67805    -1.09297
H     -3.56180    -1.50533    -1.81497
O     -2.26944    -0.43039    -1.01477
H     -1.35397    -0.68948    -1.24032
O      0.35272    -0.75986    -1.55324
H      0.99050    -1.18528    -0.95789
O      0.99604     0.48388    -1.84082
H      0.23623     1.10743    -1.77609
O      2.18989    -1.72676     0.58463
H      2.37358    -0.79496     0.81773
O      1.93202    -2.29979     1.86600
H      2.68300    -2.89623     1.96420
O     -1.74275    -0.10484     1.77263
H     -2.30944    -0.44484     1.06578
O     -0.47567    -0.61671     1.33607
H     -0.26274    -1.31017     1.97923
O      1.09163     1.51606     1.11124
H      0.52742     0.71919     1.18695
O      2.26340     0.99754     0.46881
H      1.98317     1.00597    -0.46563
O     -0.55615     3.05817    -0.40504
H      0.10661     2.54506     0.10089
O     -1.00609     2.11574    -1.37888
H     -1.67776     1.60581    -0.89898
