 28
-1061.639568470751
O      1.56513    -2.11898    -1.88293
H      2.00953    -2.74480    -2.46053
O      0.81914    -1.33264    -2.81033
H      0.92212    -0.44177    -2.41150
O      0.49876    -0.57622     1.11793
H      0.20269     0.11177     1.76597
O      1.21482    -1.51179     1.92463
H      2.11642    -1.21302     1.75413
O     -0.70922     1.32747     2.47254
H     -1.67318     1.38408     2.36509
O     -0.20168     2.29704     1.55522
H      1.14125     0.74470    -0.53227
O     -1.78203    -1.52828     0.08507
H     -0.93203    -1.21321     0.46018
O     -1.66701    -1.11835    -1.28601
H     -0.92801    -1.64371    -1.62769
O     -3.26131     0.72509     1.38742
H     -3.01291    -0.06417     0.88046
O     -3.28253     1.72217     0.36343
H     -4.21785     1.95142     0.33428
O     -0.52568     1.31030    -1.21100
H     -0.99941     0.45316    -1.27386
O      0.83591     0.93262    -1.43750
H     -0.62450     2.05948     0.71660
O      3.54650    -0.69265    -0.63423
H      2.72454    -1.09518    -0.95837
O      3.02474     0.29712     0.26217
H      3.50012     1.08136    -0.02703
