 20
-758.3033154939473
O     -0.65498    -1.09887     1.62493
H     -1.59682    -0.90197     1.69435
O     -0.57338    -1.49101     0.24275
H      0.32650    -1.88278     0.21444
O      2.20396    -1.61102    -0.95985
H      2.19902    -0.69958    -0.62065
O      1.95871    -2.33117     0.25527
H      2.42632    -3.15436     0.08531
O     -0.51103     1.91031     1.47977
H     -0.14315     1.02271     1.34415
O     -0.75029     2.35198     0.14057
H     -1.49073     1.78578    -0.13822
O      2.23861     0.98861    -0.18187
H      2.99802     1.56469    -0.31581
O      1.36941     1.39843    -1.24320
H      0.66674     1.86181    -0.73684
O     -2.33356     0.26132    -0.83857
H     -1.68259    -0.43917    -0.64388
O     -3.40957    -0.15943     0.01029
H     -4.11645    -0.27416    -0.63168
