 24
-909.9698702331629
O     -2.30634     0.06902     1.06670
H     -2.44274     0.34754     0.14637
O     -1.55454    -1.12722     0.85398
H     -0.81827    -1.00560     1.47941
O      0.29662    -1.57879    -1.27412
H     -0.59259    -1.46147    -0.89395
O      0.06443    -1.43891    -2.67419
H      0.23053    -2.33505    -2.97915
O      1.91486     0.14090     0.00217
H      1.40762    -0.52843    -0.50116
O      3.00955     0.37171    -0.87995
H      3.72395     0.40792    -0.24021
O     -1.87497     1.03778    -2.88482
H     -1.30638     0.29178    -3.10860
O     -1.91808     0.90793    -1.46240
H     -1.26609     1.56330    -1.15741
O      0.56916    -0.71257     2.48290
H      0.58006     0.25205     2.59723
O      1.93527    -1.08491     2.66824
H      2.25626    -1.04262     1.75815
O     -0.04768     1.99231     0.38797
H      0.69409     1.36794     0.31249
O     -0.40387     1.84869     1.77156
H     -1.22896     1.34150     1.67622
