 32
-1213.3122287754181
O      3.05962    -2.98563     0.94400
H      2.16069    -2.78684     1.27504
O      2.98859    -2.46399    -0.38600
H      3.03108    -3.25842    -0.92834
O     -0.82886    -1.77520    -0.40093
H     -0.27210    -1.26980    -1.03333
O     -1.96331    -0.93435    -0.21587
H     -1.95783    -0.77098     0.74974
O      1.64167    -0.20359    -0.65372
H      2.14691    -1.04223    -0.52413
O      0.94737    -0.46904    -1.87386
H      0.73706     0.43831    -2.16704
O     -0.12646     1.26938     0.66407
H      0.58868     0.69706     0.29267
O      0.48645     2.56070     0.65853
H      0.42441     2.78104    -0.28540
O      0.28018     3.18699    -2.00318
H      0.95203     3.60982    -2.54363
O      0.11329     1.96137    -2.70564
H     -0.84511     1.78002    -2.55477
O     -1.16144     0.44590     2.97301
H     -0.80970     0.89931     2.17868
O     -2.17318    -0.36344     2.37486
H     -2.97243    -0.04040     2.80305
O      0.58018    -2.33590     1.81848
H      0.02855    -2.12698     1.03496
O      1.09424    -1.05274     2.19086
H      0.46956    -0.77946     2.87904
O     -2.61388     2.00363    -0.93191
H     -1.84828     1.96416    -0.33930
O     -2.23896     1.04744    -1.92880
H     -2.20613     0.21392    -1.40980
