 36
-1364.9829533474567
O      1.56803     0.46922     0.00278
H      0.70845     0.74941    -0.39451
O      1.89447     1.59641     0.80880
H      1.47556     1.32283     1.65012
O     -1.02655    -2.17351    -0.94588
H     -0.25750    -2.16848    -1.55415
O     -1.85428    -1.17794    -1.54411
H     -2.15259    -0.69097    -0.76300
O      0.29320     0.79758     2.77068
H      0.01048    -0.08320     2.43859
O     -0.90992     1.56180     2.67654
H     -0.57742     2.40124     2.30073
O     -0.25930    -1.42099     1.46270
H     -0.55877    -1.77913     0.58880
O      1.14256    -1.69159     1.41477
H      1.44713    -0.94732     0.84780
O     -0.16121     3.66027     1.18978
H      0.57249     3.27443     0.68754
O     -1.15328     3.85750     0.18640
H     -1.88707     3.34751     0.55544
O     -3.19723     1.70492     0.50141
H     -4.08682     1.61294     0.85425
O     -2.60521     0.46343     0.88970
H     -2.02480     0.74699     1.63228
O      1.89367    -0.87357    -2.80577
H      1.89805    -0.32358    -2.00886
O      1.22776    -2.04746    -2.35633
H      1.93147    -2.57764    -1.92681
O     -0.49639     1.19235    -2.63565
H     -0.86265     0.29596    -2.66276
O     -0.56318     1.42968    -1.22438
H     -0.93484     2.32647    -1.16785
O      2.78603    -3.48547    -0.69851
H      3.21559    -4.34112    -0.78572
O      1.52081    -3.85400    -0.14030
H      1.42992    -3.16488     0.54662
