 32
-1213.3090997930187
O      1.37837    -1.40192     2.71564
H      0.58297    -1.73526     2.23840
O      2.41179    -2.10917     2.04079
H      3.12188    -2.03207     2.68160
O     -1.34593     0.33450    -1.75166
H     -1.72378    -0.36116    -2.33134
O     -0.34896     0.93643    -2.58144
H      0.45723     0.53513    -2.22273
O     -2.18669    -1.87211    -2.96830
H     -2.78703    -2.21434    -3.63575
O     -2.90399    -2.12270    -1.75885
H     -2.16230    -2.35974    -1.18357
O      0.39711     3.17695    -0.94096
H     -0.09176     2.73766    -1.65485
O      1.74934     2.94237    -1.33320
H      2.06462     3.84288    -1.45846
O      1.28457    -0.23819    -0.48303
H      1.32297     0.52334     0.13740
O      2.58498    -0.79688    -0.35914
H      2.49488    -1.29609     0.46842
O     -1.83840     0.57944     1.70290
H     -1.13971     0.84012     2.32896
O     -1.49485     1.47762     0.64779
H     -1.52360     0.90911    -0.14053
O      0.60726     1.17489     2.60337
H      1.03111     0.30258     2.67299
O      1.19802     1.65889     1.39324
H      0.48625     2.21860     1.03814
O     -0.56298    -2.09647    -0.01384
H      0.14223    -1.43273    -0.17982
O     -0.85700    -1.90096     1.37150
H     -1.38082    -1.06939     1.37483
