 36
-1364.9723702840427
O     -2.49594     0.24210    -1.39203
H     -2.40102     0.47476    -0.45029
O     -2.52679    -1.19035    -1.37729
H     -1.68199    -1.41390    -1.79691
O     -0.72838    -1.54422     0.95569
H     -0.23883    -2.38802     0.99682
O     -2.07664    -1.94408     1.16720
H     -2.42631    -1.77376     0.27538
O     -1.69176     0.89587     1.14937
H     -1.72004     0.10150     1.71891
O     -2.61179     1.81567     1.73829
H     -1.97602     2.46879     2.06421
O      0.43280    -1.64223    -1.63688
H      0.24374    -1.04716    -0.88860
O      1.32548    -0.84357    -2.40981
H      0.70698    -0.15502    -2.76976
O     -0.55081     0.89990    -3.09217
H     -1.37042     0.80952    -2.56356
O     -0.02660     2.14213    -2.61103
H      0.33897     1.86274    -1.74979
O     -0.26509     3.34951     2.32814
H      0.43269     2.77533     1.97736
O     -0.08260     3.19377     3.73617
H      0.16948     4.08686     3.99250
O      1.48518     1.62116     0.65877
H      2.08413     0.85141     0.78793
O      0.55531     1.03138    -0.26710
H     -0.25352     1.01103     0.28624
O      3.69603    -0.32162    -0.40860
H      3.03405    -0.22911    -1.11093
O      2.87550    -0.67261     0.70183
H      2.72977    -1.62838     0.57087
O      1.96284    -3.16254    -0.11417
H      1.40753    -2.76373    -0.82181
O      0.96666    -3.59091     0.81552
H      0.98472    -4.54701     0.71120
