 20
-758.3040081080044
O     -1.94047     0.37525     0.30057
H     -1.73569    -0.04474     1.15179
O     -1.87356    -0.75557    -0.57681
H     -0.90347    -0.82446    -0.72077
O      0.73566    -1.22528    -0.63348
H      1.36485    -0.50877    -0.83149
O      0.93207    -1.35517     0.78108
H      0.29181    -2.04989     0.98055
O     -0.21597     2.03266    -0.93403
H     -0.85474     1.47481    -0.44001
O      0.53382     2.59784     0.14450
H      0.42865     3.53445    -0.04077
O      3.23691     1.14137    -2.11408
H      4.11152     1.14562    -1.71657
O      2.43243     0.84041    -0.97236
H      1.91685     1.65369    -0.84649
O     -1.74685    -2.56091     1.48075
H     -1.98690    -2.16323     0.62481
O     -1.94613    -1.42780     2.33287
H     -2.83532    -1.58005     2.66973
