 28
-1061.6443805710903
O     -0.86690     1.60937    -1.54028
H     -0.69533     0.70416    -1.84115
O     -0.94053     1.39988    -0.12381
H     -0.09932     1.79431     0.18592
O      1.98848    -0.54124     0.50919
H      1.88782    -0.50555    -0.46080
O      0.98062    -1.47227     0.89896
H      0.36241    -0.92557     1.43463
O     -0.69057     1.05638     2.95825
H      0.19461     1.29461     2.63832
O     -0.78328    -0.29427     2.49044
H      0.37797    -2.34041    -0.43080
O      1.75288     0.30658    -3.07106
H      2.51164     0.19739    -3.65156
O      1.93651    -0.79164    -2.18050
H      1.18210    -1.36452    -2.39264
O     -3.00300    -0.04037     0.78997
H     -2.38123     0.53676     0.29701
O     -2.91535    -1.24717     0.03240
H     -3.80228    -1.32131    -0.33241
O     -0.76421    -1.36928    -1.54114
H     -1.48387    -1.37564    -0.88225
O     -0.07987    -2.58961    -1.25874
H     -1.69601    -0.30910     2.15966
O      1.45839     2.35389     0.60748
H      1.96136     3.17133     0.67432
O      1.76344     1.70014     1.84014
H      2.01407     0.82420     1.47231
