 32
-1213.3154785895156
O      1.37415    -0.90070     2.15049
H      0.52082    -0.91223     2.62603
O      1.47834     0.48707     1.79779
H      2.00931     0.43007     0.98370
O      1.51308    -2.05184    -2.76062
H      1.27219    -2.14019    -1.81964
O      1.52981    -0.63167    -2.91795
H      0.59078    -0.43651    -3.09770
O     -1.73190    -1.34412    -2.35232
H     -2.64517    -1.29693    -2.65118
O     -1.18555    -0.11490    -2.83383
H     -1.19228     0.42465    -2.00588
O     -0.82149     1.16905    -0.57455
H      0.15396     1.26509    -0.51240
O     -1.22837     2.52834    -0.70154
H     -1.43593     2.70585     0.23193
O      2.58790     0.36024    -0.74072
H      2.29148    -0.12014    -1.56111
O      1.78928     1.53877    -0.84059
H      2.26372     2.07874    -1.48184
O     -0.62583    -1.80303     0.02748
H     -0.93248    -1.68193    -0.89566
O      0.75333    -2.13183    -0.14671
H      1.13598    -1.73478     0.66169
O     -1.92726    -0.50837     1.94368
H     -1.41529    -0.99618     1.26620
O     -1.18315    -0.78015     3.13883
H     -1.09637     0.14001     3.45185
O     -0.58127     1.78869     2.92646
H      0.18305     1.51017     2.39246
O     -1.56649     2.07661     1.93500
H     -1.90312     1.17027     1.77797
