 32
-1213.3097540775561
O      2.17687     0.88925     1.45381
H      2.20402     0.31820     0.64949
O      2.02195    -0.07288     2.49493
H      2.89084    -0.06030     2.90967
O     -0.64182    -1.60914    -0.58782
H     -1.42499    -1.25990    -1.04328
O     -0.86015    -3.02524    -0.57804
H     -0.73645    -3.17883     0.36841
O     -1.60166     0.62658    -2.13460
H     -0.72985     0.99540    -2.38228
O     -2.20506     1.72400    -1.44141
H     -2.72327     1.22885    -0.78246
O     -0.17833     2.74604    -0.05238
H     -0.99630     2.51295    -0.54214
O     -0.31338     1.90667     1.09369
H      0.61911     1.72287     1.32386
O      0.95495     1.17350    -2.72251
H      1.53928     0.43962    -2.48088
O      1.59811     2.27823    -2.08333
H      1.00094     2.45362    -1.33621
O      2.47139    -1.90411    -0.83498
H      1.98044    -2.45024    -0.19891
O      1.81214    -0.65605    -0.68481
H      0.85774    -0.91790    -0.68051
O     -0.41598    -2.35882     2.44949
H     -0.97174    -1.67447     2.04557
O      0.76886    -2.27461     1.66536
H      1.19789    -1.45866     1.98960
O     -2.10572    -0.03819     1.37831
H     -1.47673     0.69788     1.20212
O     -3.24762     0.33981     0.61418
H     -3.84240     0.67763     1.29070
