 40
-1516.638026319127
O      3.24609     0.02104    -0.25059
H      3.04527    -0.90893    -0.05725
O      2.96347     0.67111     0.99343
H      2.00657     0.46924     1.09579
O     -0.58745     0.21724     1.76333
H     -0.48341     1.17347     1.63989
O      0.50696    -0.22080     0.95756
H      0.36596    -1.18578     0.84287
O      3.38275     3.90228     1.87103
H      3.98002     4.59071     1.56553
O      2.92266     3.37872     0.62528
H      3.21177     2.44820     0.68917
O     -0.08439     2.75202    -0.44991
H      0.42409     2.04165    -0.89761
O      0.33957     2.62483     0.91523
H      1.17752     3.13185     0.91389
O     -2.67160     0.15273    -2.91325
H     -1.93974     0.45423    -3.45901
O     -2.02804    -0.00276    -1.65970
H     -2.35834     0.77460    -1.14501
O      0.55980    -0.41008    -1.99713
H     -0.35771    -0.20779    -1.71477
O      1.23254     0.83101    -1.78290
H      2.02866     0.54000    -1.28193
O     -2.76409    -1.23533     1.05748
H     -1.99173    -0.71288     1.34948
O     -2.14605    -2.11776     0.11252
H     -2.55530    -1.83077    -0.71587
O     -0.59277    -4.89666    -0.26341
H     -0.48859    -5.85008    -0.19037
O     -1.34725    -4.59853     0.91715
H     -1.71977    -3.73503     0.65580
O      1.77148    -2.43798    -0.75329
H      1.26376    -1.77166    -1.25968
O      0.86212    -2.72456     0.31274
H      0.47870    -3.58945     0.05336
O     -2.99790     2.01976     0.99274
H     -3.85749     1.59403     0.93530
O     -2.69933     2.23247    -0.38563
H     -1.79950     2.63075    -0.33861
