 36
-1364.9776277123995
O      0.36856     2.54665     1.48891
H      1.06363     2.80990     0.85704
O      0.49805     1.12192     1.49710
H      0.43111     0.85887     0.55041
O      0.45754    -1.87814     1.63246
H      1.11572    -1.45451     1.04322
O      0.08525    -3.04470     0.89898
H     -0.86350    -2.85265     0.78218
O     -1.83297    -0.00285     1.97563
H     -0.95902     0.45272     1.94700
O     -1.63327    -0.98112     2.99278
H     -0.82418    -1.42168     2.66198
O      0.50516    -2.17598    -2.81521
H      1.06114    -2.67212    -3.42430
O     -0.07481    -3.20904    -2.03235
H      0.39468    -3.12774    -1.18667
O     -2.28330     2.23417    -0.01556
H     -2.40934     1.71907     0.79760
O     -1.90892     3.52585     0.45327
H     -1.07110     3.31003     0.90463
O      0.07253     0.33945    -0.99247
H     -0.73572    -0.22429    -1.04120
O     -0.29859     1.57976    -1.60613
H     -1.04325     1.86543    -1.01823
O      2.70873    -1.32741    -1.19933
H      1.89662    -1.15387    -1.69698
O      2.37547    -0.80984     0.08545
H      2.67970     0.11064     0.05772
O      1.81514     3.15523    -0.74552
H      1.20771     2.63730    -1.30890
O      3.00316     2.37754    -0.77724
H      3.61364     2.95646    -1.23915
O     -1.95047    -1.36249    -0.96645
H     -1.77808    -2.15338    -1.49880
O     -2.28535    -1.96186     0.29388
H     -2.28384    -1.19000     0.90503
