 32
-1213.3103264111542
O      3.07803     0.79896     0.81194
H      4.01940     0.90515     0.98085
O      2.72455     2.04393     0.20470
H      1.79478     2.08656     0.48968
O     -1.08910    -1.30721     0.01921
H     -0.14823    -1.13182    -0.21055
O     -1.57328    -1.88689    -1.18898
H     -1.50740    -1.11420    -1.78672
O     -1.17472     0.49995    -2.27673
H     -0.24439     0.81188    -2.32526
O     -1.75100     1.48262    -1.40407
H     -2.54214     1.00403    -1.07025
O      0.10821     1.70743     0.48906
H     -0.58877     1.69924    -0.21535
O     -0.63828     1.56871     1.69164
H     -0.36074     0.68281     1.96971
O      1.37394     1.24441    -2.24400
H      2.06505     1.63540    -1.68451
O      2.05158     0.16914    -2.89875
H      1.76242    -0.58657    -2.36592
O      1.51451    -1.03652    -0.29088
H      2.09453    -0.33177     0.08231
O      2.12151    -2.22868     0.19432
H      1.58128    -2.39045     0.98212
O      0.01993    -2.31215     2.42343
H     -0.63346    -2.13748     1.72415
O      0.18279    -1.01532     2.98777
H     -0.27486    -1.09369     3.83053
O     -3.45718     0.29263     1.27707
H     -2.66205     0.84310     1.30587
O     -3.58520     0.00826    -0.12242
H     -3.15980    -0.85970    -0.19063
