 32
-1213.3085593945625
O      2.68149     0.00961     1.77823
H      2.07254     0.62782     2.20665
O      1.75978    -0.72265     0.96487
H      1.71449    -1.58255     1.41590
O      0.44605    -3.08326    -0.33316
H      1.29116    -2.89007    -0.76394
O      0.85969    -3.44892     0.99210
H      0.08427    -3.14671     1.48266
O     -3.20608     1.12299    -2.27789
H     -3.80431     1.33267    -3.00067
O     -2.93099     2.42907    -1.75326
H     -2.50387     2.17566    -0.90930
O     -0.48359     0.93883     3.17998
H     -1.18127     1.54064     3.45943
O      0.52828     1.81437     2.68375
H      0.23088     1.97293     1.76115
O     -0.81053    -0.10528    -2.37341
H     -1.64049     0.41176    -2.35914
O      0.14754     0.94991    -2.27004
H      0.97714     0.45090    -2.37951
O      2.71854    -1.40321    -1.41513
H      2.48466    -0.95844    -0.57459
O      2.47687    -0.36299    -2.35872
H      3.36621    -0.07780    -2.58780
O     -1.58717     1.69183     0.45994
H     -1.50784     0.71068     0.52183
O     -0.24900     2.06420     0.11119
H     -0.15613     1.68473    -0.79959
O     -1.01163    -1.38930     1.93544
H     -0.75408    -0.54324     2.35047
O     -1.42729    -0.96124     0.63022
H     -0.76743    -1.40186     0.06175
