 32
-1213.3032550740988
O      2.96355     1.81671     0.26142
H      2.01180     2.05205     0.30599
O      3.15783     1.73730    -1.15318
H      3.62328     2.55906    -1.33759
O     -0.24178    -3.18738     0.33696
H      0.62816    -2.76673     0.31906
O     -1.05501    -2.09937    -0.11382
H     -1.52078    -1.81760     0.69201
O     -2.46973    -0.32197    -2.17672
H     -3.16725    -0.18085    -2.82323
O     -1.99143    -1.61797    -2.56896
H     -1.70462    -1.94944    -1.69418
O      0.31924     1.92373     0.40931
H     -0.09580     1.59619    -0.41450
O     -0.27624     3.19799     0.64113
H     -1.04039     2.93374     1.16899
O      2.00701    -0.72843     0.91857
H      2.59066     0.04644     0.82535
O      2.10563    -1.37086    -0.35557
H      1.40809    -0.91526    -0.86701
O      0.82063     1.22857    -2.37839
H      1.69160     1.25657    -1.94128
O      0.30138     0.02199    -1.81793
H     -0.46786    -0.15514    -2.38224
O      0.23049    -0.63101     3.64708
H     -0.05389    -1.47789     3.99689
O     -0.26853    -0.73048     2.31636
H      0.56400    -0.73493     1.79250
O     -2.18041     0.87447     1.23921
H     -1.46953     0.41924     1.73029
O     -2.97507    -0.24220     0.83085
H     -2.97398    -0.11336    -0.12518
