 36
-1364.9726622939806
O      2.64074    -1.06400     2.50323
H      2.55752    -1.72629     1.80055
O      1.94457    -1.72383     3.56134
H      2.41852    -1.39134     4.32731
O      0.75209    -1.66700    -2.75847
H      1.49181    -1.39167    -2.19565
O      0.14264    -2.66582    -1.92233
H     -0.59268    -2.17494    -1.52173
O      2.77887     1.80989     0.13603
H      2.24147     1.52672    -0.61902
O      1.87150     1.54445     1.21319
H      2.24828     0.74439     1.61651
O     -0.58097     0.69080    -2.54361
H     -0.16740    -0.18544    -2.70762
O      0.26705     1.27868    -1.55556
H     -0.19069     1.03248    -0.72893
O     -1.41716    -0.75654    -0.25784
H     -1.66756    -0.86476     0.67333
O     -2.61207    -1.05516    -0.98050
H     -2.93435    -0.15589    -1.16672
O     -0.60980     3.20342     1.10578
H      0.28366     2.87234     0.93566
O     -1.37041     2.05810     0.70700
H     -1.92398     2.40942    -0.00899
O     -3.68235     1.31911    -1.73292
H     -4.16772     1.41175    -2.55724
O     -2.61835     2.25383    -1.89329
H     -1.90088     1.67588    -2.23767
O      1.80164    -2.59443     0.20875
H      1.25438    -3.00468    -0.48683
O      1.68315    -1.22285    -0.18026
H      0.80621    -0.99222     0.19297
O     -1.22164    -0.20420     2.63002
H     -1.08254     0.67969     2.25976
O     -0.11778    -0.88191     2.03656
H      0.45548    -1.11165     2.79285
