 36
-1364.9738326489378
O      0.36317     1.47815     0.63161
H      0.07736     1.07815    -0.21565
O      1.66673     1.97675     0.34846
H      2.20075     1.15468     0.40306
O     -0.88820    -1.38878     0.80506
H     -1.07721    -2.12291     0.19030
O     -0.30256    -2.07340     1.91842
H     -0.78973    -1.63892     2.63626
O     -2.31970     0.63434     2.13955
H     -2.53466     1.56011     2.34066
O     -1.19825     0.37380     2.98672
H     -0.46415     0.66849     2.42713
O      3.09643    -0.35613     0.33010
H      2.80090    -1.16078     0.80336
O      3.09338    -0.86530    -1.01286
H      2.35988    -0.34518    -1.39878
O     -1.39257     3.24577     1.54417
H     -0.69084     2.67420     1.16445
O     -2.21114     3.49759     0.40158
H     -1.96743     4.39810     0.16644
O     -1.68054     1.46091    -1.31112
H     -2.05617     2.14705    -0.72470
O     -2.38836     0.27746    -0.93072
H     -2.10768     0.14846    -0.00500
O      0.97033     0.40287    -1.97327
H      0.23339    -0.06012    -2.40612
O      1.12829     1.59730    -2.73281
H      1.12895     2.24154    -2.01115
O     -0.97666    -1.65457    -2.25126
H     -1.70220    -1.15617    -1.83523
O     -0.90862    -2.82573    -1.42967
H      0.04814    -2.98089    -1.40040
O      1.87399    -3.14839    -0.49337
H      2.46804    -2.51709    -0.94218
O      2.11958    -2.74024     0.85962
H      1.21560    -2.58334     1.18627
