 32
-1213.317542466953
O      2.21797    -0.87801    -0.64335
H      1.92057    -0.37682    -1.43565
O      2.47287     0.18417     0.27882
H      1.92960    -0.08750     1.05174
O     -2.51690    -1.80356     0.20637
H     -2.90241    -1.05249     0.69591
O     -2.13539    -1.21951    -1.04258
H     -1.26725    -1.65589    -1.13563
O      1.73315     1.47570    -3.41299
H      2.17261     1.94998    -2.69134
O      1.11412     0.41489    -2.68588
H      0.25367     0.80200    -2.42121
O     -1.08385     1.26333    -1.39431
H     -1.65081     0.47578    -1.29353
O     -0.32251     1.18659    -0.19031
H      0.33946     1.89982    -0.32723
O      1.54947     3.05093    -0.41124
H      1.93356     3.71901     0.16493
O      2.69812     2.47442    -1.02534
H      2.73388     1.62646    -0.52916
O     -0.18305    -2.75004     1.00349
H     -1.14390    -2.59076     0.98304
O      0.09288    -2.47076    -0.37293
H      0.92921    -1.96436    -0.33561
O     -0.33995     0.10218     2.23806
H     -0.36417     0.43729     1.31971
O      0.87248    -0.64760     2.26724
H      0.55477    -1.53054     1.98101
O     -3.31158     0.15766     1.79692
H     -4.13872     0.48324     2.16240
O     -2.82955    -0.67062     2.85507
H     -1.88772    -0.42447     2.81903
