 36
-1364.977645682807
O      0.90784     1.00874    -2.27050
H      1.62077     1.61709    -2.00193
O     -0.24840     1.82923    -2.06904
H     -0.42514     1.67163    -1.11767
O     -2.41606     0.79507    -3.26300
H     -1.60225     1.24708    -2.96429
O     -1.83972    -0.25181    -4.04195
H     -2.49966    -0.36250    -4.73059
O     -0.11364    -0.91187     3.38097
H     -1.06588    -0.97337     3.16454
O      0.21243     0.34399     2.77725
H      1.18927     0.28113     2.72419
O      2.86826     0.22722     2.47564
H      3.31886    -0.61389     2.60301
O      2.95980     0.40515     1.06050
H      2.32740    -0.29033     0.76070
O     -2.77005    -2.28595     1.81901
H     -3.64264    -2.53548     2.13627
O     -2.63190    -0.99174     2.40493
H     -2.57163    -0.42686     1.60054
O     -0.83376     1.05807     0.40940
H     -0.48439     0.66000     1.24160
O     -2.05011     0.34163     0.18205
H     -1.77330    -0.30104    -0.50677
O      1.96986     2.65303    -0.11706
H      2.34433     1.90531     0.37849
O      2.84051     2.64018    -1.25321
H      2.90783     3.58069    -1.43878
O     -1.27746    -1.40546    -1.71220
H     -1.52618    -1.10009    -2.60941
O      0.13893    -1.57902    -1.84521
H      0.43311    -0.68431    -2.10152
O      1.21291    -1.47362     0.65064
H      0.70890    -1.80811    -0.11924
O      1.16534    -2.52513     1.61844
H      0.66800    -2.06368     2.32072
