 32
-1213.313275983471
O      1.21162    -2.61648     0.02030
H      1.85641    -1.88004    -0.00354
O      0.31779    -2.13091     1.02280
H     -0.53434    -2.04195     0.54783
O      0.01702    -2.20520    -2.32679
H      0.43667    -2.60851    -1.53603
O      0.63548    -0.90986    -2.30976
H      1.55065    -1.10104    -2.56495
O     -2.07792    -0.89072    -1.21362
H     -1.48344    -1.49645    -1.70210
O     -2.12604    -1.50423     0.07700
H     -2.36054    -0.73439     0.62772
O     -1.61834     2.41364    -0.55214
H     -0.80646     2.78655    -0.15540
O     -1.01050     1.56748    -1.53470
H     -1.47316     0.71716    -1.39940
O      1.51282     1.80205    -0.82025
H      0.73217     1.63411    -1.38830
O      0.89780     2.48227     0.27771
H      0.85349     1.75934     0.94022
O      3.57158    -0.67350    -1.34302
H      4.46675    -0.60878    -0.99580
O      2.79318    -0.44607    -0.17436
H      2.37236     0.42348    -0.38382
O      0.16724     0.45128     3.19754
H     -0.71058     0.79431     2.98690
O      0.72881     0.39017     1.88569
H      0.67004    -0.56883     1.68193
O     -2.70563     0.82230     1.31793
H     -2.45258     1.49322     0.64789
O     -2.29963     1.46276     2.51878
H     -3.08468     1.34376     3.05919
