 36
-1364.9710375706784
O      3.75657    -0.27392     0.31152
H      3.74366     0.17499     1.17226
O      3.24969     0.76914    -0.52775
H      3.98330     0.91621    -1.13405
O     -4.21206     0.90502     0.11983
H     -3.83307     1.66806    -0.33703
O     -3.15748    -0.04273    -0.07328
H     -2.84119    -0.22919     0.82608
O     -2.12951    -2.56799    -0.85967
H     -2.83964    -1.90871    -0.88294
O     -1.10052    -1.92254    -1.60815
H     -1.01805    -1.07170    -1.14335
O      1.08204     0.07869    -2.48381
H      1.46330    -0.71365    -2.07478
O      0.35535     0.57842    -1.36439
H     -0.36056     1.11267    -1.77348
O     -0.67192    -0.81593     1.02110
H      0.19788    -1.28412     0.94462
O     -1.51802    -1.77938     1.64632
H     -1.67873    -2.35242     0.87487
O      0.75992     1.94952     0.79565
H      0.87295     1.39644    -0.01029
O     -0.64658     1.83125     1.02817
H     -0.73841     0.85588     1.10352
O     -2.18132     2.83435    -0.97303
H     -1.56322     2.56241    -0.26164
O     -1.59391     2.20733    -2.11427
H     -1.49863     2.94780    -2.72149
O      1.84115    -0.30860     2.97579
H      1.70181    -0.18121     3.92024
O      2.52554     0.89606     2.62073
H      1.85422     1.35656     2.07745
O      1.55861    -2.13281     0.45072
H      2.38524    -1.62005     0.48731
O      1.51305    -2.51919    -0.93349
H      0.55416    -2.53112    -1.10052
