 40
-1516.64569678002
O      2.75473    -0.15117    -0.84944
H      2.47231    -0.13238    -1.77716
O      3.49623    -1.35787    -0.69718
H      2.84687    -2.02239    -0.99979
O     -0.39601    -1.33509    -0.04676
H     -0.06845    -0.50259     0.37069
O     -1.69189    -1.51549     0.51073
H     -2.18396    -0.86372    -0.02429
O     -2.23264     1.30967     1.29010
H     -1.82287     0.97122     2.10089
O     -1.60070     2.58265     1.14100
H     -2.23805     3.01824     0.55030
O      0.93372     0.69464     0.87915
H      1.68860     0.48442     0.28491
O      1.55540     0.65953     2.16415
H      2.09197    -0.16563     2.14367
O     -2.48917     2.73676    -1.93207
H     -1.53538     2.87180    -1.69824
O     -3.13948     3.46805    -0.89721
H     -3.28582     4.32139    -1.31400
O      0.01128     2.68791    -1.21692
H     -0.00100     2.36357    -0.29476
O      0.64668     1.62343    -1.93029
H     -0.11793     1.12560    -2.28451
O     -2.37104    -0.01076    -1.56571
H     -2.58539     0.93682    -1.63734
O     -1.29531    -0.12630    -2.50397
H     -0.87375    -0.93954    -2.18737
O      1.80490    -2.60505     1.64108
H      1.08465    -2.33382     2.23753
O      2.84149    -1.68117     2.00384
H      3.36123    -1.67053     1.18379
O      0.72598    -2.28612    -2.60478
H      0.41080    -3.10226    -3.00412
O      1.30576    -2.76586    -1.39967
H      0.68799    -2.37910    -0.73675
O     -0.69918    -0.29278     3.28962
H      0.14298     0.13393     3.03928
O     -0.46210    -1.65022     2.88649
H     -1.05232    -1.71786     2.10930
