 36
-1364.9788718967002
O     -3.18327     0.73152    -2.44563
H     -2.70457     1.56689    -2.53411
O     -2.21564    -0.04406    -1.74006
H     -1.63287    -0.36582    -2.44641
O     -0.56256    -2.66317    -0.48577
H     -0.06505    -2.99690     0.29444
O     -1.58215    -1.89976     0.16768
H     -1.89016    -1.29698    -0.53895
O     -0.38187    -0.67597     2.19440
H     -0.90951    -1.20069     1.55120
O     -0.97670     0.61405     2.03946
H     -0.52274     1.13809     2.73463
O      0.17462    -1.23769    -2.64562
H      0.01512    -1.83913    -1.89304
O      0.94760    -0.22562    -1.99437
H      0.66186     0.57700    -2.47663
O     -0.00473     1.88573    -3.37123
H      0.42314     2.61286    -3.83433
O     -0.97926     2.55945    -2.58084
H     -0.66126     2.32643    -1.68468
O      0.10668     3.30432     2.53269
H      0.61748     2.95724     1.77531
O      0.40341     2.31339     3.52285
H      0.25907     2.81206     4.33255
O      1.14806     2.11890     0.36558
H      1.52520     1.22981     0.54841
O     -0.13317     1.80376    -0.17614
H     -0.57037     1.34368     0.57174
O      2.19411    -1.29078     0.10390
H      1.74965    -0.85379    -0.65345
O      2.05942    -0.30785     1.13040
H      1.28047    -0.63894     1.61844
O      2.03296    -3.70390     1.35998
H      2.26522    -2.85333     0.94834
O      0.67847    -3.39983     1.71490
H      0.51488    -3.99949     2.44934
