 36
-1364.9707580187533
O      2.60904     1.66905     3.29226
H      2.96298     1.83962     4.16973
O      3.81595     1.50298     2.53492
H      3.48873     1.73727     1.64715
O     -0.83814    -3.10349    -0.77069
H     -1.01372    -3.23849     0.17281
O     -0.47292    -1.72448    -0.70850
H     -0.22859    -1.51167    -1.62238
O      0.25845    -0.20915     1.90894
H      0.18194     0.36193     1.10875
O      1.66551    -0.43922     1.97023
H      1.95503     0.25843     2.59521
O     -2.11221    -0.65722    -3.58520
H     -2.89995    -0.61792    -4.13589
O     -2.21916     0.56882    -2.85907
H     -2.57399     0.25481    -1.99393
O      0.04540     1.26515    -0.24049
H      0.14820     0.77234    -1.08982
O     -0.99661     2.20164    -0.51184
H     -1.74672     1.67823    -0.17567
O     -2.84388    -0.60818    -0.54001
H     -2.05902    -1.19888    -0.58682
O     -2.50603     0.22455     0.58137
H     -2.50776    -0.43837     1.30147
O      0.64792     1.26704    -3.16370
H     -0.31605     1.24968    -3.24345
O      0.84861     0.06482    -2.41441
H      1.76894     0.15585    -2.11833
O      2.80317     0.31375    -0.34542
H      2.47010    -0.11493     0.46613
O      2.69677     1.69308     0.04244
H      1.73344     1.82419    -0.01915
O     -2.37467    -1.83822     2.27518
H     -2.40049    -1.83419     3.23619
O     -1.11692    -2.45321     2.00807
H     -0.53594    -1.65812     1.95054
