 36
-1364.9749591619798
O      0.80169     0.17963     0.37034
H      0.27600     0.93141    -0.00940
O      1.67176     0.91812     1.23642
H      1.07099     1.00778     2.01314
O     -1.07139    -1.31044    -1.67865
H     -0.15303    -1.44717    -1.99924
O     -1.26177     0.08517    -1.89979
H     -1.88822     0.08835    -2.63151
O     -0.80782     0.05000     3.84368
H     -0.83405    -0.70153     3.22794
O     -0.29537     1.06664     2.98040
H     -1.11287     1.39848     2.56422
O     -1.78849    -1.37982     0.88739
H     -1.45876    -1.47752    -0.03669
O     -0.61506    -1.58943     1.67183
H      0.01992    -0.97738     1.23821
O     -0.11045     2.39045    -0.64303
H      0.49399     2.45696    -1.41438
O     -1.31822     2.95416    -1.14552
H     -1.95087     2.47551    -0.59696
O     -2.89798     1.09221     0.68249
H     -2.50945     0.20876     0.86103
O     -2.59900     1.80524     1.87851
H     -3.42375     1.76291     2.37327
O      2.32410    -0.73587    -1.70509
H      1.83560    -0.48647    -0.89942
O      1.51845    -1.79014    -2.24210
H      1.73020    -2.52981    -1.64453
O      1.92902     2.05942    -2.32340
H      2.18938     1.16078    -2.58459
O      3.00761     2.49338    -1.49403
H      2.72936     2.20629    -0.61171
O      1.51818    -3.60637    -0.20353
H      1.79003    -4.52841    -0.23741
O      0.09351    -3.72720    -0.13025
H     -0.07563    -3.34895     0.74560
