 40
-1516.632364501473
O      3.54883     0.67640    -1.53256
H      3.09718     0.03753    -0.95045
O      2.70297     1.80381    -1.28023
H      3.24994     2.54178    -1.56150
O     -0.47930    -2.08937    -2.74181
H     -0.04317    -2.31967    -3.56743
O     -1.31972    -1.00992    -3.14170
H     -0.79250    -0.22918    -2.87171
O      0.61954     3.02120     1.78906
H     -0.28843     2.87901     1.48302
O      1.24429     1.80576     1.39033
H      1.70086     2.03928     0.56623
O      1.02169    -4.67314     1.66192
H      1.68965    -5.28231     1.98666
O      1.73668    -3.43768     1.74250
H      1.70710    -3.13855     0.81310
O     -3.32004    -0.51037    -1.15640
H     -2.96093    -0.97861    -1.92335
O     -3.41413     0.81996    -1.69242
H     -3.52370     1.33050    -0.86682
O     -1.63929     0.23064     1.73443
H     -0.89933    -0.10372     2.27049
O     -1.25705    -0.36367     0.47925
H     -2.12712    -0.49221     0.03021
O      0.35512     0.89188    -2.19566
H      1.26689     1.16477    -1.97063
O     -0.38088     1.53163    -1.14296
H     -0.60989     0.75594    -0.58134
O      1.94666    -0.84188     0.00984
H      1.41130    -0.80395     0.83219
O      1.56121    -2.09657    -0.55506
H      0.76898    -1.86259    -1.07187
O      1.20331    -0.00555     3.33323
H      1.31664     0.72958     2.69730
O      0.66087    -0.95510     2.40662
H      1.03352    -1.80633     2.69118
O     -2.08089     3.05314     0.39782
H     -1.61121     2.62882    -0.34329
O     -3.15782     2.14537     0.63872
H     -2.72480     1.48758     1.21402
