 36
-1364.976632725102
O      3.59199     2.02161     0.44967
H      4.03363     2.61092     1.06787
O      2.23729     2.43882     0.59719
H      1.82806     1.63039     0.96930
O     -0.09789     2.72807    -1.46341
H     -0.58981     2.24843    -2.14901
O      1.26095     2.54503    -1.88970
H      1.72946     2.71722    -1.04610
O     -1.76821    -2.62048     3.17547
H     -1.92532    -2.55985     4.12244
O     -0.35127    -2.49141     3.07762
H     -0.27173    -1.54556     2.82611
O     -1.98737     0.82843    -2.43742
H     -2.39871     1.02030    -1.57251
O     -1.32468    -0.39279    -2.09930
H     -0.59204    -0.42139    -2.74264
O     -1.39598     1.74092     0.70931
H     -0.91557     2.13477    -0.04423
O     -2.62385     1.30182     0.12044
H     -2.67707     0.40093     0.51230
O     -2.46807    -1.17057     1.00840
H     -2.39773    -1.70694     1.81867
O     -1.36137    -1.71853     0.27646
H     -1.40573    -1.22918    -0.56548
O      0.95944    -0.40174    -3.51817
H      1.48530    -1.15305    -3.80873
O      1.53957    -0.15255    -2.23463
H      1.47410     0.82415    -2.18118
O     -0.07455     0.00402     2.21043
H     -0.66185     0.60392     1.69767
O      1.12572     0.11584     1.44298
H      1.33348    -0.82735     1.25519
O      1.55561    -2.45363     0.84984
H      0.80172    -2.92021     1.24258
O      1.39430    -2.69272    -0.54055
H      1.28687    -1.79158    -0.87541
