 28
-1061.6406289085521
O     -3.19211    -0.16109     0.86691
H     -3.91060    -0.79311     0.78496
O     -2.09635    -0.98439     0.47305
H     -1.60973    -1.10324     1.32995
O     -0.56134     0.26136     3.24230
H     -0.92684     0.79956     2.52607
O     -0.60898    -1.05390     2.68798
H      0.23286    -1.11385     2.18809
O      2.13926    -1.89782     0.64869
H      1.87299    -2.43649    -0.10606
O      1.02646    -0.99685     0.64962
H      1.78517    -3.21336    -2.47633
O      0.01788     2.95428     0.71197
H     -0.35812     3.83466     0.81151
O     -1.13327     2.11757     0.79935
H     -1.19233     1.77490    -0.11677
O     -0.91887    -0.21302    -1.79744
H     -1.33329    -0.44636    -0.93737
O     -0.84321     1.21285    -1.73930
H      0.11633     1.34418    -1.86802
O      1.36402    -1.40815    -2.31655
H      0.45013    -1.08740    -2.16401
O      1.23095    -2.74715    -1.84467
H      1.43561    -0.13955     0.40317
O      1.96363     1.36510    -0.23878
H      1.31956     2.04738     0.02425
O      1.82797     1.37010    -1.66336
H      2.05093     0.44768    -1.86379
