 28
-1061.6446907351824
O      2.71738    -1.67219    -1.55212
H      3.30086    -2.38514    -1.83298
O      1.46360    -2.34396    -1.48167
H      1.22286    -2.17504    -0.54785
O      0.57256    -1.73629     0.98522
H     -0.30470    -1.72695     1.41240
O      1.27353    -0.64453     1.59723
H      0.58257     0.05021     1.69333
O      0.60827     2.40900     1.94292
H      1.17976     2.24797     1.17511
O     -0.38447     1.40146     1.79847
H      0.15478    -1.53827    -2.41388
O     -1.92974    -1.05646     1.72661
H     -1.74665    -0.16896     2.06497
O     -2.52418    -0.77125     0.46088
H     -1.75307    -0.76519    -0.14648
O     -1.86354     2.02601    -0.26966
H     -1.97267     1.47204    -1.05696
O     -3.08222     1.85712     0.46177
H     -3.11887     0.88402     0.52107
O     -0.59148    -0.29602    -1.29034
H      0.16030     0.33315    -1.28867
O     -0.51742    -0.85780    -2.59300
H     -0.93421     1.74204     1.05053
O      1.74243     1.00310    -1.40332
H      2.28109     0.32307    -1.83893
O      2.47188     1.26794    -0.20690
H      2.34770     0.45161     0.30866
