 32
-1213.311615282604
O      2.64391    -1.21730     2.35587
H      2.90999    -1.86251     3.01685
O      1.36004    -1.71879     1.99608
H      0.77926    -0.95438     2.22576
O     -1.23632     1.92605    -3.18458
H     -1.43090     2.50274    -3.92920
O     -2.39111     2.12828    -2.35387
H     -2.12255     1.58723    -1.58710
O     -1.98497    -2.87056    -0.42742
H     -1.02723    -2.82965    -0.62112
O     -2.05010    -4.01164     0.42578
H     -2.64465    -4.57666    -0.07591
O      0.79902     2.21212    -1.45086
H      0.08596     2.17694    -2.12844
O      0.34596     3.25412    -0.59131
H     -0.05891     2.75064     0.13292
O      2.39639     1.30469     0.42326
H      2.00089     1.70459    -0.38340
O      2.84409     0.04875    -0.09288
H      3.14256    -0.37114     0.72680
O     -1.50480     0.61459    -0.29586
H     -0.73562     0.03474    -0.49889
O     -2.31729    -0.18072     0.56400
H     -2.27137    -1.05934     0.15324
O     -0.33575     0.30069     2.30630
H     -1.18887     0.25851     1.83392
O      0.16481     1.58674     1.92286
H      1.03121     1.36760     1.54223
O      0.52994    -0.90661    -0.99153
H      1.42281    -0.54601    -0.77876
O      0.64212    -2.26619    -0.54621
H      0.91338    -2.14610     0.38294
