 20
-758.3066259076406
O     -1.09836    -2.09517     0.84281
H     -0.72235    -1.99602    -0.04616
O     -1.40652    -0.73944     1.15858
H     -0.52923    -0.36319     1.34041
O      0.66241     1.18929     0.68758
H      0.79120     0.90709    -0.24287
O      0.51278     2.59830     0.58839
H     -0.42096     2.67179     0.35036
O      1.98565    -1.55779     0.70222
H      1.93716    -2.11786     1.48933
O      2.99425    -0.60163     1.04946
H      2.44906     0.18882     1.19308
O     -0.16349    -0.84131    -1.63628
H     -0.81718    -0.11766    -1.68477
O      1.07164    -0.11025    -1.63373
H      1.65982    -0.78452    -1.26682
O     -2.27203     1.38134    -0.26920
H     -2.06827     0.55466     0.21350
O     -2.12940     0.96418    -1.62707
H     -3.03669     0.77441    -1.88622
