 32
-1213.3061994647642
O      3.63839    -1.46765    -0.15734
H      4.49890    -1.79658     0.12099
O      3.78753    -1.46772    -1.58222
H      2.85109    -1.54926    -1.84408
O     -0.21273     0.57528     3.09283
H     -0.98039     0.09247     3.42279
O      0.59552    -0.50439     2.59894
H      1.19076    -0.00157     2.01179
O     -1.63291     0.75073    -2.70609
H     -0.72203     0.38400    -2.65625
O     -2.39634    -0.24503    -2.03399
H     -2.88499    -0.65223    -2.75813
O     -1.16010     2.66871    -0.64390
H     -1.50230     2.25806    -1.45187
O     -0.89447     1.48997     0.11945
H     -1.57855     1.49283     0.81180
O      1.66645     1.07469     0.68913
H      0.77287     1.30747     0.35429
O      2.39967     0.87290    -0.51733
H      2.98540     0.12784    -0.27618
O      0.93505     0.00599    -2.54149
H      1.45743     0.48140    -1.85568
O      1.14817    -1.35203    -2.15386
H      0.52933    -1.43958    -1.40078
O     -0.79905    -1.48108    -0.30459
H     -1.46913    -0.97112    -0.80447
O     -1.32561    -1.46776     1.02154
H     -0.53037    -1.23817     1.55787
O     -3.02189     0.44045     1.89399
H     -2.56559    -0.36517     1.59397
O     -3.02200     0.21480     3.30497
H     -3.19978     1.10454     3.61826
