 32
-1213.3097440449972
O      2.13562    -1.13196     2.35455
H      1.46071    -1.72425     1.97414
O      1.66730     0.15701     1.93868
H      2.14128     0.29976     1.10189
O     -0.60649    -1.93986    -1.74899
H     -1.04180    -1.92523    -0.87462
O      0.77386    -1.87754    -1.37637
H      0.92532    -0.92650    -1.19668
O     -1.12493    -0.74058     3.09676
H     -1.80825    -0.43646     3.70083
O     -0.93553     0.40915     2.28050
H      0.04258     0.36293     2.17337
O      0.61331     2.74879     1.02166
H      0.89377     2.61234     1.93288
O     -0.75231     3.16732     1.19282
H     -1.16681     2.64124     0.48398
O      2.05183     1.12546    -2.01835
H      1.40046     0.85187    -2.68379
O      1.40605     0.67174    -0.83353
H      1.03050     1.49573    -0.47588
O     -1.57352     1.47359    -0.75895
H     -1.37045     1.11574    -1.64106
O     -2.17253     0.33162    -0.12624
H     -1.77433     0.38554     0.76319
O      0.38382    -2.82378     1.04284
H      0.72653    -2.72760     0.12988
O     -0.88272    -2.17083     0.86120
H     -1.00548    -1.73776     1.72677
O      0.14848     0.41057    -3.86975
H     -0.13661     0.92572    -4.62729
O     -1.08242     0.26890    -3.16619
H     -0.99806    -0.65631    -2.85732
