 24
-909.97410915467
O      0.13351    -0.51837    -2.54340
H      1.03447    -0.15093    -2.43703
O     -0.65733     0.62814    -2.21990
H     -0.65760     1.13034    -3.04233
O     -1.31000    -2.38401     0.04344
H     -1.71145    -1.62958     0.49841
O      0.03621    -1.92896    -0.09278
H      0.05777    -1.58392    -1.00467
O      1.09360     0.88556     0.56458
H      0.85571     0.34909     1.36161
O     -0.14817     1.53347     0.25332
H     -0.33182     1.19372    -0.64419
O     -2.05779     0.82968     1.95723
H     -1.39486     1.22117     1.35060
O     -2.80388     0.04830     1.01904
H     -3.59123    -0.14915     1.53236
O      0.36465    -1.83605     2.57801
H      0.33563    -1.91655     1.60382
O      0.39540    -0.41171     2.74870
H     -0.53820    -0.20312     2.90185
O      2.39991     0.74671    -1.76717
H      2.05705     0.92731    -0.86378
O      2.42763     2.05284    -2.33001
H      3.37344     2.19794    -2.41682
