 24
-909.975359843597
O     -3.08344    -0.36078     0.17584
H     -2.79573     0.34838    -0.42126
O     -1.89201    -0.53884     0.93971
H     -1.39618    -1.17990     0.39272
O      1.07091    -1.62351    -0.67099
H      1.17803    -1.66782     0.30012
O     -0.33810    -1.83176    -0.83235
H     -0.53985    -1.19093    -1.53010
O      1.71682     0.78157    -1.63573
H      1.52264    -0.11311    -1.28790
O      2.54360     1.30029    -0.59254
H      3.13831     1.86668    -1.09193
O     -1.66038     1.39339    -1.34762
H     -0.91500     1.55544    -0.73098
O     -1.06198     0.58910    -2.36217
H     -0.82768     1.23372    -3.03748
O      1.30380    -1.25785     2.03201
H      0.97711    -0.33892     2.06656
O      0.25048    -1.93713     2.70821
H      0.73738    -2.34912     3.42731
O      0.18553     1.91682     0.50103
H      1.11739     1.75811     0.25026
O      0.02195     1.14232     1.69285
H     -0.81231     0.65966     1.49636
