 32
-1213.3112913375244
O      1.43570     1.37836    -0.07418
H      1.54843     0.92592    -0.93612
O      0.80948     2.60260    -0.45694
H      0.50219     2.92433     0.41391
O     -0.60627    -2.68783    -0.69186
H     -0.10336    -2.14615    -1.33724
O      0.27433    -2.73217     0.42750
H      0.13549    -1.86849     0.86909
O     -1.53646     2.14613    -1.73321
H     -0.64994     2.31516    -1.36424
O     -1.51284     0.72679    -1.88018
H     -1.98744     0.41310    -1.09326
O     -0.28539     3.49215     1.83413
H     -0.14414     4.29785     2.33949
O      0.08641     2.48987     2.79100
H     -0.39915     1.73351     2.41548
O      0.44601    -0.94362    -2.40457
H     -0.19161    -0.20085    -2.31715
O      1.69974    -0.31530    -2.12580
H      2.20089    -1.06390    -1.74613
O      2.91553    -1.21457     0.31499
H      3.87399    -1.14675     0.29570
O      2.70289    -2.29532    -0.59899
H      1.90829    -2.69278    -0.18604
O     -1.05418     0.38206     1.58533
H     -1.68648    -0.35521     1.67431
O      0.20115    -0.30226     1.55011
H      0.71723     0.28799     0.95448
O     -2.74319    -1.23712    -0.02529
H     -2.03983    -1.88224    -0.25287
O     -2.91319    -1.54240     1.35645
H     -3.86868    -1.50739     1.43913
