 24
-909.9757868337135
O     -2.08641    -2.37527    -0.24573
H     -2.52703    -1.52900    -0.40707
O     -1.90630    -2.34286     1.17150
H     -1.01882    -1.95172     1.24511
O      0.34988    -2.01105    -1.30568
H     -0.54369    -2.27258    -1.00340
O      0.07054    -0.70566    -1.84236
H      0.94625    -0.29248    -1.74376
O      2.54958    -0.04482    -1.07880
H      3.08106    -0.84227    -1.14109
O      2.48595     0.13975     0.33514
H      2.43782     1.11459     0.37778
O     -1.79114     0.48225    -0.41984
H     -1.07549     0.09323    -0.98389
O     -2.21515     1.59627    -1.19196
H     -1.55980     2.25906    -0.93952
O     -0.27269     0.45019     1.95396
H     -1.14005     0.35954     1.52618
O      0.30648    -0.81454     1.61747
H      1.08044    -0.55013     1.08207
O      0.41430     2.44353     0.29802
H      0.22795     1.73557     0.95498
O      1.80047     2.69731     0.50958
H      1.79973     3.36622     1.20167
