 24
-909.9710028465888
O     -1.63240    -0.60789     1.41987
H     -0.97306    -0.61899     2.13780
O     -1.55588     0.75065     0.95242
H     -1.87193     0.59721     0.03895
O      1.17662     0.35634    -2.66457
H      1.47579     0.48270    -3.57028
O     -0.04475     1.09865    -2.66347
H      0.15792     1.78224    -2.00479
O      2.35425    -0.52523    -0.09014
H      2.09374     0.40197     0.02540
O      1.08937    -1.17533     0.03864
H      0.79171    -1.32543    -0.87429
O     -1.45665    -1.65050    -1.24100
H     -1.54682    -1.72078    -0.28055
O     -1.97612    -0.33003    -1.43129
H     -1.31003     0.06219    -2.02396
O      0.65660    -2.08963     2.50618
H      0.88884    -1.72695     1.62771
O      0.34525    -0.87384     3.19853
H      0.28216    -1.19061     4.10486
O      0.30220     2.83374    -0.52785
H      0.19175     3.66783    -0.05958
O      0.79748     1.98069     0.50974
H     -0.00859     1.46526     0.74559
