 36
-1364.9743731943913
O      1.51592     2.88760    -0.02848
H      0.78339     2.52365     0.49550
O      2.54013     1.89644     0.09055
H      2.32684     1.29789    -0.64358
O     -1.35165     0.95723    -0.84418
H     -0.45261     0.58372    -1.03574
O     -1.14387     1.73039     0.34571
H     -1.52387     1.12527     1.01226
O     -0.39552    -2.79387     0.35824
H      0.52034    -2.73508     0.70136
O     -0.22748    -2.34330    -0.98220
H     -1.16040    -2.22930    -1.25851
O      0.97635    -0.06225    -1.50772
H      0.71060    -0.98662    -1.30541
O      0.54930     0.06618    -2.86881
H      0.67725     1.03591    -2.97899
O      2.04178    -2.34021     1.45559
H      2.16796    -1.38241     1.65186
O      1.88562    -2.86074     2.77805
H      2.70087    -3.36069     2.87271
O     -1.58856    -1.14640     2.46383
H     -1.45589    -1.60342     1.61571
O     -2.28813     0.02493     2.06723
H     -3.21300    -0.18780     2.23743
O      0.81144     2.67788    -2.60545
H      1.06865     2.96121    -1.70521
O     -0.53728     3.13800    -2.70369
H     -1.01592     2.46916    -2.19437
O      0.71549     0.55661     2.35746
H      0.36319    -0.26356     2.73157
O      2.09163     0.22679     2.14784
H      2.36272     0.94241     1.54116
O     -2.78927    -1.84127    -1.60668
H     -3.39353    -1.66036    -2.33312
O     -3.21517    -0.91641    -0.59821
H     -2.55152    -0.19822    -0.70397
