 40
-1516.6395640935855
O      3.13049    -0.23911    -1.61258
H      3.45098    -0.26551    -0.70014
O      1.72182    -0.18847    -1.33748
H      1.37431     0.34893    -2.07181
O      0.74014     1.73372     0.88521
H      1.60822     1.33158     1.12724
O      0.38503     2.47269     2.04602
H     -0.23700     1.85981     2.46588
O     -1.93866     0.69082     2.92129
H     -2.11584     0.72032     1.95839
O     -1.45700    -0.64755     3.03656
H     -2.11767    -1.07285     3.59037
O     -3.18105    -2.42096    -0.15113
H     -3.25186    -3.28921     0.24841
O     -1.88352    -2.05480     0.31009
H     -1.93674    -1.07264     0.32866
O      0.93279    -1.37505     2.00648
H      0.05344    -1.15232     2.37301
O      0.83676    -2.75897     1.71685
H      0.81178    -2.74826     0.74811
O     -0.53673    -2.48949    -1.93403
H     -1.12448    -2.56362    -1.15393
O      0.74703    -2.66585    -1.31181
H      1.13827    -1.76603    -1.38931
O      0.82382     3.45642    -1.61743
H      0.84723     3.24566    -0.67272
O     -0.54291     3.15728    -1.90197
H     -0.87763     3.99431    -2.24463
O     -1.63934     0.60157     0.30749
H     -0.77482     1.06812     0.23623
O     -2.50502     1.33876    -0.54561
H     -2.28812     0.89725    -1.39057
O      3.26032    -0.56937     1.14790
H      2.39127    -0.96613     1.38937
O      3.10786     0.73647     1.70841
H      3.43111     0.63159     2.60867
O     -1.39811     0.01453    -2.59091
H     -1.00627    -0.87675    -2.47164
O     -0.30333     0.78123    -3.09563
H     -0.51218     1.65520    -2.71421
