 32
-1213.309149037081
O      2.49766     0.67919     1.25359
H      3.09602     1.29514     1.68428
O      1.72627     1.54713     0.43583
H      0.86544     1.60975     0.91872
O     -0.78713    -1.03868    -0.30417
H      0.09655    -1.23113    -0.69818
O     -1.68359    -1.67964    -1.21029
H     -1.67998    -1.00884    -1.91963
O     -1.17806     0.57271    -2.57797
H     -0.21346     0.66439    -2.56072
O     -1.54337     1.55121    -1.59943
H     -2.33241     1.13466    -1.21798
O     -0.73608     1.71458     1.36712
H     -1.27535     1.56112     0.56980
O     -1.29807     0.78088     2.29736
H     -0.55083     0.16513     2.44228
O      1.50974     1.01854    -2.19892
H      1.63261     1.26376    -1.26181
O      2.75561     0.39378    -2.46900
H      2.88640     0.62263    -3.39323
O      1.62725    -1.68094    -1.17241
H      2.19404    -1.06374    -1.67458
O      2.49483    -2.08911    -0.10641
H      1.84773    -2.24302     0.60215
O      0.65992    -2.12621     1.92849
H     -0.15535    -1.98520     1.42315
O      0.80972    -0.87674     2.59264
H      1.52735    -0.45251     2.08374
O     -3.95332     0.43791     1.39596
H     -3.33461     0.79816     2.04736
O     -3.13887     0.42417     0.22668
H     -2.71709    -0.45094     0.25238
