 16
-606.6374900813395
O     -1.95243     0.72299    -1.05191
H     -1.37883     0.06189    -0.62144
O     -2.06460     1.66514     0.03347
H     -2.30994     2.46152    -0.44651
O      1.92891     0.25053    -1.29169
H      1.64317     0.70769    -0.48231
O      2.04875    -1.09239    -0.82582
H      2.99962    -1.21509    -0.72986
O      0.47766     0.72647     2.17799
H      0.12375    -0.11886     1.86770
O      0.49290     1.48363     0.96421
H     -0.45524     1.63744     0.80040
O     -0.85596    -2.51402     0.10283
H     -1.43714    -2.53470    -0.66223
O     -0.41516    -1.15653     0.06687
H      0.50376    -1.24726    -0.26896
