 20
-758.3050163617992
O     -1.27846    -1.96866     1.21498
H     -0.81638    -2.04639     0.35662
O     -2.57192    -1.52439     0.78897
H     -3.10667    -2.29974     0.98534
O      1.89701     2.01272    -0.53148
H      2.84197     2.17889    -0.58922
O      1.62281     1.39719    -1.79298
H      1.61541     0.44686    -1.54740
O      1.22277     0.16378     1.56579
H      1.28446     1.01271     1.10487
O      0.12395     0.40031     2.44494
H     -0.42387    -0.36947     2.24598
O      0.07419    -1.52449    -1.14663
H     -0.38328    -0.66206    -1.12272
O      1.40679    -1.13812    -0.78845
H      1.30961    -0.88928     0.14945
O     -1.40891     1.53770    -1.49207
H     -0.59083     2.04409    -1.57544
O     -1.06784     0.73771    -0.35083
H     -1.90732     0.65652     0.12234
