 36
-1364.977717196945
O     -0.18321     1.26638     2.32721
H     -1.11135     1.08388     2.05577
O     -0.31472     2.42500     3.14137
H     -0.48892     3.08946     2.45209
O     -2.40088     0.44620    -0.10627
H     -2.30629    -0.49696     0.14299
O     -2.57484     1.06841     1.17146
H     -2.69739     1.99209     0.89937
O      1.44813    -1.20365     2.87241
H      0.91055    -0.43139     3.08619
O      0.84365    -1.59914     1.64609
H      1.54232    -1.38295     0.99502
O      0.32796     2.27974    -0.74232
H     -0.16586     1.51049    -1.08246
O      1.27923     1.69481     0.14864
H      0.75896     1.58703     0.98174
O     -1.51337    -2.02043     0.47378
H     -0.71250    -1.89986     1.02292
O     -0.95444    -2.51147    -0.74396
H     -0.80739    -1.66943    -1.22650
O     -2.28648     3.70095     0.58169
H     -2.60454     4.60621     0.52142
O     -0.91944     3.89461     0.93355
H     -0.47448     3.40503     0.20475
O     -0.02549    -0.32610    -1.91119
H      0.95536    -0.36031    -1.80348
O     -0.20678    -0.58990    -3.29421
H      0.17303    -1.47447    -3.37834
O      1.48283    -3.43504    -1.61156
H      0.63362    -3.26463    -1.15814
O      1.05037    -3.51434    -2.96965
H      1.10578    -4.45863    -3.14899
O      2.60486    -0.62889    -0.14003
H      2.34067     0.31319    -0.08073
O      2.53531    -0.85674    -1.54887
H      2.49598    -1.82874    -1.58489
