 40
-1516.646834391351
O      2.15955     0.13862    -2.24273
H      1.26982     0.49677    -2.04407
O      3.03744     1.06531    -1.60768
H      3.20460     0.56846    -0.78420
O      1.71871    -2.64413    -0.48889
H      1.11105    -3.41284    -0.35528
O      1.58441    -2.46032    -1.90711
H      1.98003    -1.57468    -2.02744
O     -3.26690     1.79070     1.56405
H     -3.16386     2.74782     1.65484
O     -1.90424     1.37732     1.63416
H     -1.69393     1.19129     0.68926
O      0.47497     3.36702    -0.18646
H      0.23906     3.83753     0.62712
O      1.64188     2.66950     0.26290
H      2.14474     2.56587    -0.56049
O     -1.76815    -2.44943    -1.43809
H     -1.59675    -1.85885    -0.67676
O     -0.98719    -1.79473    -2.44030
H     -0.11221    -2.22312    -2.35110
O      2.70949    -0.39230     0.58279
H      2.40574    -1.26707     0.26761
O      1.48438     0.13555     1.09204
H      1.56308     1.08967     0.88415
O     -0.53491     3.55439     2.45592
H     -0.92879     2.66869     2.32034
O     -1.71037     4.37359     2.46842
H     -1.70349     4.69482     3.37516
O     -0.69838    -4.50655     0.90273
H     -0.64950    -3.58785     1.19744
O     -0.23874    -4.41994    -0.44465
H     -0.97701    -3.96834    -0.90554
O     -0.85514    -0.92527     0.51715
H      0.07378    -0.60125     0.62587
O     -1.16102    -1.41800     1.82375
H     -1.69531    -0.68212     2.16158
O     -1.25471     1.44549    -0.95857
H     -0.76557     2.28011    -0.85207
O     -0.39942     0.78237    -1.88786
H     -0.87978    -0.05708    -2.07191
