 36
-1364.9756424049654
O      2.94762     0.93601     1.02143
H      3.28902     0.64499     0.15579
O      3.24573    -0.18210     1.85779
H      2.38335    -0.61792     1.89554
O     -2.37696     0.20579     0.74043
H     -2.36754    -0.77126     0.63870
O     -2.49122     0.60354    -0.64072
H     -2.49470     1.57137    -0.54425
O     -0.26454    -1.58831     1.95808
H      0.02568    -2.25250     1.31163
O      0.32340    -0.44883     1.32537
H      0.06279     0.28606     1.92113
O      3.00230    -1.51606    -1.42044
H      3.37740    -1.79339    -2.26220
O      3.07225    -0.09430    -1.51248
H      2.12531     0.15652    -1.56476
O     -3.37646    -2.39351    -1.19635
H     -3.63413    -1.46661    -1.27518
O     -2.44453    -2.30972    -0.11610
H     -1.59961    -2.59142    -0.53597
O      0.84363     2.60723     1.23629
H      1.58092     1.95596     1.23358
O     -0.06779     2.02880     2.18430
H     -0.91508     2.30364     1.80368
O     -0.32917    -0.09171    -1.95770
H     -1.21694     0.14190    -1.60280
O      0.52144     0.62982    -1.06769
H      0.30909     0.22229    -0.19498
O     -1.04569     3.62758    -0.74565
H     -0.23579     3.39914    -0.25837
O     -2.02459     3.15921     0.18315
H     -2.54986     3.94688     0.36054
O      0.88012    -2.65153    -0.21923
H      1.66775    -2.23149    -0.60522
O     -0.05419    -2.69160    -1.30587
H     -0.04129    -1.77283    -1.65424
