 20
-758.3071747951855
O     -0.58778    -1.77699     0.17159
H      0.26402    -1.36079     0.39851
O     -0.94108    -1.12616    -1.06021
H     -0.14499    -1.28798    -1.60703
O      1.72727    -0.34151     0.61847
H      1.28983     0.52395     0.43301
O      1.59313    -0.40700     2.03946
H      2.51505    -0.36830     2.31045
O     -0.55939     1.56040    -0.97536
H     -0.90495     0.64768    -0.91096
O      0.11647     1.72406     0.27696
H     -0.58900     1.55794     0.93477
O      1.41034    -1.04225    -2.29250
H      2.17601    -0.95911    -1.70752
O      1.37795     0.20091    -2.99060
H      0.79863     0.74413    -2.43263
O     -2.48211    -0.00405     1.44553
H     -1.93420    -0.79746     1.35910
O     -1.60331     0.84671     2.18961
H     -2.20663     1.21993     2.83985
