 36
-1364.9762183767443
O      3.94095    -0.25492     0.54637
H      3.91809     0.36127     1.29535
O      3.58599     0.61310    -0.53131
H      4.38322     0.58858    -1.07170
O     -3.98420     0.45354    -0.24826
H     -3.68097     1.27058    -0.66621
O     -2.76141    -0.28975    -0.22898
H     -2.51613    -0.31476     0.71171
O     -2.03702    -3.03166    -0.43098
H     -2.72401    -2.35761    -0.55287
O     -1.15492    -2.80277    -1.51950
H     -1.23623    -1.84831    -1.66791
O      0.86168     0.45342    -1.80888
H      1.26240    -0.39539    -1.54328
O     -0.45732     0.02083    -2.12272
H     -0.95832     0.85955    -2.13062
O     -0.53712    -0.50254     1.57919
H      0.28966    -0.96433     1.29111
O     -1.36323    -1.54683     2.05722
H     -1.29709    -2.19793     1.34003
O      0.87614     1.96845     0.37916
H      0.94987     1.43944    -0.44828
O     -0.53215     1.95276     0.62804
H     -0.65881     1.03817     0.95541
O     -2.35284     2.81366    -1.13806
H     -1.64424     2.55252    -0.51104
O     -1.83615     2.30821    -2.36475
H     -1.57042     3.10672    -2.83059
O      1.96695     0.10430     3.01516
H      1.24999     0.40344     3.58647
O      2.48979     1.31654     2.47339
H      1.88136     1.51477     1.73072
O      1.51762    -1.85353     0.62834
H      2.42358    -1.53350     0.78637
O      1.49666    -1.93119    -0.80110
H      0.74993    -2.53272    -0.95344
