 40
-1516.6394828041339
O     -0.14691     3.45957     1.22679
H      0.06101     4.39801     1.19934
O      0.94725     2.94072     1.98276
H      1.45125     2.46123     1.28265
O      3.38996     1.14613     0.26849
H      3.16509     0.25221     0.58821
O      2.07613     1.61385    -0.04309
H      1.88359     1.14557    -0.88772
O     -0.97111     0.85125    -0.15510
H     -0.84865     0.72716     0.80164
O     -2.31526     0.43784    -0.37207
H     -2.37772     0.59836    -1.32577
O     -0.41715     0.62796     2.76943
H      0.02172     1.46134     2.99188
O      0.61670    -0.30835     3.07884
H      0.08404    -1.07730     3.33392
O     -1.41780     3.29296    -1.54243
H     -0.97585     2.95093    -0.74716
O     -0.79753     2.50518    -2.55626
H     -0.31080     3.16435    -3.06293
O      1.28919     0.37755    -2.29171
H      0.41964     0.80962    -2.34327
O      0.92664    -0.98798    -2.14481
H      1.14919    -1.20803    -1.21299
O      2.34015    -1.14036     1.17694
H      1.67287    -0.75961     1.78020
O      1.52692    -1.90874     0.29203
H      1.14698    -2.58213     0.89658
O     -2.13380    -2.95499    -0.56502
H     -2.01231    -2.58589    -1.45547
O     -1.42053    -1.97931     0.19553
H     -1.91134    -1.14254     0.01895
O     -0.68737    -2.76516     2.62017
H     -1.02824    -2.50134     1.73434
O      0.51020    -3.44940     2.24306
H      0.25320    -4.37342     2.31376
O     -2.01249    -0.28016    -3.24287
H     -2.41997    -0.46817    -4.09335
O     -1.53606    -1.56882    -2.86620
H     -0.59774    -1.35772    -2.64564
