 20
-758.3057720009058
O     -0.31343    -1.48686     1.37243
H     -0.35857    -2.03380     2.16418
O     -1.44848    -1.91060     0.61585
H     -0.99937    -2.23804    -0.17853
O      2.45939     1.04515     0.09371
H      1.81912     1.13026     0.81183
O      1.68138     0.39633    -0.90353
H      1.02129     1.08592    -1.12671
O     -0.10824     1.14652     1.66823
H     -0.23827     0.19003     1.46973
O     -0.17833     1.16296     3.09163
H     -1.06223     1.52108     3.22265
O     -0.38361    -1.06944    -2.43921
H      0.22195    -0.95186    -3.17872
O      0.38151    -1.84734    -1.51722
H      0.92958    -1.15129    -1.09968
O     -1.57013     1.02711    -1.19146
H     -1.13043     0.26927    -1.61726
O     -0.47620     1.94079    -1.03350
H     -0.53580     2.10372    -0.08152
