 36
-1364.977237398084
O      1.52947     2.93178     1.59630
H      1.10523     2.11846     1.96317
O      0.67914     3.94762     2.12121
H      1.27648     4.36696     2.74589
O     -3.23143    -2.80096     0.71039
H     -2.70624    -3.31512     0.08223
O     -2.18160    -2.27617     1.52665
H     -2.30376    -1.31704     1.37504
O      1.96179    -1.57594    -0.84860
H      1.28661    -2.14119    -0.39417
O      2.21414    -0.59116     0.15463
H      2.30586     0.23336    -0.36138
O      1.84219     0.42701    -3.59328
H      2.45830     0.15233    -4.27794
O      1.18175    -0.78423    -3.26453
H      1.64738    -1.06941    -2.44702
O     -0.76472    -0.40255    -1.37069
H     -0.30639    -0.39554    -2.23088
O     -1.14656     0.95851    -1.20753
H     -0.29567     1.42919    -1.06645
O      2.26478     1.66371    -1.27758
H      2.08187     1.36417    -2.18828
O      1.09335     2.43280    -1.01423
H      1.29268     2.78637    -0.12211
O     -2.59516     0.29495     0.90949
H     -2.14773     0.61036     0.09334
O     -2.42680     1.40991     1.78527
H     -3.27333     1.39827     2.23909
O      0.02289    -2.99847     0.27685
H     -0.58086    -2.72913     1.00941
O     -0.89692    -3.01660    -0.81413
H     -0.97895    -2.06445    -0.98753
O      0.14443     0.83687     2.42917
H     -0.79553     1.08555     2.37256
O      0.08119    -0.43081     1.76863
H      0.86253    -0.43502     1.18051
