 36
-1364.9824778115146
O      0.40721     1.00603     1.84605
H     -0.03351     0.18740     2.17640
O      1.55917     0.47179     1.19147
H      1.28445     0.51571     0.25239
O     -0.32369    -1.76703    -0.97948
H     -0.73353    -0.99258    -1.43634
O     -1.49610    -2.49252    -0.60274
H     -1.68970    -2.09104     0.26660
O     -1.97276    -1.38636     1.81261
H     -2.23548    -0.44631     1.77342
O     -0.75236    -1.30408     2.55942
H     -0.20638    -2.00221     2.13744
O      2.79729    -1.63045    -1.48023
H      2.73168    -1.98151    -0.56436
O      4.07136    -0.98853    -1.43802
H      4.57160    -1.54126    -2.04380
O     -2.58248     1.24045     1.43902
H     -2.04601     1.97600     1.05866
O     -3.40564     0.92301     0.32044
H     -4.27398     1.21532     0.61815
O      0.19627     3.09810     0.26294
H      0.28490     2.43226     0.97911
O     -1.20700     3.02734     0.01042
H     -1.23038     2.61381    -0.87509
O      1.06425     0.70628    -1.45184
H      1.76375     0.08277    -1.72174
O      1.59463     1.99381    -1.76902
H      1.17596     2.50776    -1.04908
O     -1.82764     0.26632    -1.77340
H     -2.45546     0.54283    -1.08267
O     -1.28500     1.51506    -2.22066
H     -0.35009     1.24897    -2.30185
O      2.23429    -2.14537     1.09664
H      2.02857    -1.22527     1.35760
O      0.94288    -2.76162     1.08551
H      0.58910    -2.51886     0.19749
