 36
-1364.9817024012848
O      0.19674     1.65821    -0.16933
H      0.68312     1.27091     0.59052
O     -0.93666     2.29319     0.41895
H     -1.40639     2.48268    -0.40640
O     -2.10166     1.47565    -1.90366
H     -2.72091     0.93201    -1.38648
O     -1.22680     0.45065    -2.37962
H     -0.55677     0.94862    -2.87290
O      1.98171     0.65088     1.53688
H      2.86247     0.88670     1.18815
O      1.98432    -0.75411     1.28595
H      1.28326    -1.06086     1.89182
O      1.53692     0.63498    -2.98382
H      1.61892    -0.16208    -2.42328
O      2.02245     1.65412    -2.11645
H      1.32131     1.70245    -1.43791
O     -3.18699    -2.16043     1.45541
H     -2.32542    -2.59537     1.31049
O     -2.88457    -1.49728     2.69901
H     -3.02734    -0.57778     2.40967
O     -3.00611     0.67228     1.21991
H     -2.15903     1.08839     0.97809
O     -3.41549     0.06638    -0.01576
H     -3.44367    -0.87202     0.26114
O      4.22939     1.21629     0.16213
H      5.03810     1.71629     0.01798
O      4.13004     0.43634    -1.03335
H      3.44377     0.93395    -1.53471
O      1.37874    -1.36574    -1.20420
H      1.81631    -1.18559    -0.34946
O      0.02183    -1.34204    -0.76387
H     -0.38738    -0.67369    -1.35210
O     -0.23392    -1.70300     2.43446
H     -1.09535    -1.59471     2.87934
O     -0.60544    -2.67778     1.44445
H     -0.27509    -2.24848     0.62586
