 16
-606.6347851858623
O     -1.80935    -0.35737     1.18145
H     -2.23888    -1.08089     1.64735
O     -0.76996    -0.00947     2.11057
H     -0.37133     0.74016     1.63617
O      0.47587     1.95832     0.61214
H      1.13746     1.42754     0.12710
O     -0.44580     2.24784    -0.44258
H     -0.34387     3.20312    -0.50259
O      1.88447     0.13141    -0.84421
H      1.06366    -0.34697    -1.07502
O      2.46762    -0.74051     0.12657
H      3.26424    -1.01598    -0.33446
O     -0.67838    -0.76109    -1.20466
H     -1.11354    -0.58835    -0.34012
O     -0.85503    -2.17311    -1.34033
H     -1.44668    -2.20105    -2.09704
