 40
-1516.6435831807798
O      4.09285     0.67435     2.85326
H      4.54195    -0.14089     3.09177
O      2.98520     0.15573     2.12529
H      2.23219     0.40113     2.70553
O      1.51682     1.59399    -0.10470
H      1.09911     1.61725    -0.99192
O      2.77782     0.98438    -0.38775
H      3.00928     0.65072     0.50441
O     -1.29048     1.80155     1.52229
H     -1.05653     1.54451     2.43127
O     -0.73660     0.65425     0.88202
H      0.16039     0.95526     0.60927
O      1.06639     0.89616     3.82729
H      1.13726     0.85004     4.78545
O     -0.25477     0.43074     3.59154
H     -0.08224    -0.41747     3.12141
O     -0.11492     0.32085    -3.08700
H      0.66931    -0.17916    -2.76597
O     -0.09367     1.46999    -2.23565
H     -0.99813     1.46676    -1.85653
O     -1.63639    -1.93642     0.11076
H     -1.76887    -0.98387     0.25641
O     -1.04450    -1.94649    -1.18592
H     -1.75334    -1.60668    -1.76178
O     -2.47434     1.64273    -0.98159
H     -2.37373     1.76975    -0.02512
O     -3.40234     0.54944    -1.02122
H     -3.71976     0.63150    -1.93092
O      1.28183    -2.38579     1.92798
H      1.46325    -2.00179     1.05407
O      0.01290    -1.83161     2.23874
H     -0.56501    -2.14715     1.51464
O      2.00124    -0.93887    -2.01980
H      2.46176    -0.24292    -1.50505
O      1.61108    -1.80791    -0.95542
H      0.65609    -1.89335    -1.13097
O     -2.56906    -0.67609    -3.43307
H     -1.73060    -0.18421    -3.52549
O     -3.50843     0.32417    -3.81503
H     -4.08919    -0.18906    -4.38493
