 36
-1364.9758580498578
O     -1.26283     2.12619     1.28297
H     -1.86317     1.59077     0.71916
O     -0.49071     2.84918     0.32887
H      0.41586     2.61427     0.57587
O     -2.35142    -0.26427    -1.24907
H     -1.80243     0.45528    -1.62227
O     -2.77362     0.28654     0.01079
H     -2.42978    -0.40836     0.61008
O      1.35459    -1.80913    -1.36451
H      0.91647    -0.93672    -1.38828
O      0.68147    -2.44268    -0.27433
H     -0.06231    -2.87531    -0.72517
O      0.37666     0.72794    -1.50605
H      1.17204     1.29912    -1.47940
O     -0.58875     1.63847    -2.01132
H     -0.62308     2.26900    -1.26195
O      2.48203     3.05118    -0.00357
H      3.17432     2.40099     0.20462
O      2.15684     2.66922    -1.33934
H      2.39330     3.44640    -1.85870
O      0.98501    -0.07310     1.35483
H      0.49388    -0.85939     1.04493
O      0.28074     0.30941     2.53704
H     -0.30165     1.00802     2.17514
O     -1.60170    -3.48944    -1.30832
H     -1.96982    -4.23175    -1.79505
O     -2.75046    -2.92346    -0.68729
H     -2.72333    -2.02307    -1.05972
O      3.52625    -0.01099    -0.54763
H      3.07543    -0.86648    -0.48292
O      3.53881     0.45996     0.80650
H      2.61593     0.29004     1.08827
O     -1.49448    -1.55537     1.39688
H     -1.71969    -2.46709     1.15694
O     -1.71009    -1.51559     2.81520
H     -0.92329    -0.99809     3.05379
