 32
-1213.3086454246738
O     -0.23821    -0.46820     3.25186
H     -1.18571    -0.61387     3.12129
O     -0.19633     0.93407     3.54948
H      0.63149     1.16493     3.10923
O      1.54524    -2.44721    -2.63631
H      1.63658    -2.29368    -1.67872
O      0.74738    -1.33059    -3.01878
H     -0.10509    -1.51328    -2.59323
O      2.54773     2.56589     0.79644
H      3.24452     2.69627     1.44523
O      1.76557     1.56958     1.44224
H      0.89028     1.75556     1.03413
O     -0.68718     1.80909     0.53391
H     -1.42594     1.34835     0.96804
O     -0.85951     1.37033    -0.81989
H      0.05754     1.36153    -1.17746
O      1.50876     1.00661    -2.00517
H      1.37003     0.14139    -2.45892
O      2.58326     0.67799    -1.11639
H      2.66432     1.49083    -0.58756
O     -1.89078    -0.89733    -1.74736
H     -1.55384    -0.04342    -1.40399
O     -3.28133    -0.75210    -1.45411
H     -3.58435    -1.65707    -1.57071
O     -2.51833    -1.32960     1.53381
H     -1.74740    -1.51567     0.97815
O     -2.86408    -0.01574     1.09589
H     -3.23106    -0.18783     0.20798
O      0.23041    -1.09240     0.43661
H      0.41052    -0.88348     1.37010
O      1.51080    -1.52109    -0.03295
H      1.92837    -0.66823    -0.26795
