 24
-909.9743273352641
O     -2.27935    -1.47717     0.63178
H     -2.33292    -1.58172    -0.33471
O     -0.92672    -1.90574     0.83641
H     -0.78980    -1.63618     1.75420
O     -2.21654    -1.33064    -2.02223
H     -2.83505    -1.26837    -2.75543
O     -1.43935    -0.15070    -2.17852
H     -1.80762     0.43957    -1.48763
O      3.96950     0.00450    -0.66078
H      3.19546    -0.32339    -1.14042
O      3.41003     1.13184     0.01443
H      3.15025     0.76874     0.87576
O      1.05933    -0.13089    -0.98179
H      0.25662    -0.36804    -1.47645
O      0.95197     1.31331    -1.00470
H      1.85730     1.52066    -0.70014
O      1.38247     0.04177     1.93993
H      1.18610    -0.39368     1.09412
O      0.17191    -0.14128     2.67561
H     -0.39560     0.56879     2.33653
O     -2.02494     1.12574     1.14800
H     -2.23307     0.18229     0.98450
O     -1.81249     1.58808    -0.19113
H     -0.87325     1.82895    -0.17543
