 36
-1364.9784282224011
O      0.16778     2.73046     1.36025
H      0.72843     2.04906     1.77663
O      0.80927     2.85528     0.09175
H      0.35266     2.18492    -0.45123
O     -1.70352     1.60586    -1.93663
H     -2.20833     1.00083    -1.37246
O     -0.40661     1.12646    -1.58367
H      0.08186     1.14141    -2.42409
O      1.59552     0.55177     2.08032
H      2.28532     0.60723     1.37460
O      0.86007    -0.59255     1.66023
H     -0.03814    -0.20957     1.57965
O      2.81761     0.97010    -2.66470
H      3.50147     0.80256    -3.31924
O      1.76802     0.10346    -3.08469
H      1.73420    -0.51989    -2.32579
O     -4.08044    -1.50097     1.55854
H     -5.02719    -1.54123     1.71773
O     -3.87227    -2.66084     0.74608
H     -2.90862    -2.76503     0.87198
O     -1.53151     0.48516     1.12870
H     -1.51036     1.44796     1.01729
O     -2.47717     0.07597     0.13565
H     -3.10095    -0.46244     0.67453
O      3.13478     0.91950    -0.00391
H      3.02956     0.99321    -0.97425
O      3.38820     2.26810     0.38501
H      2.48566     2.64503     0.31984
O      1.32340    -1.24869    -0.85667
H      1.25038    -1.06974     0.11379
O     -0.03893    -1.47787    -1.24128
H     -0.37657    -0.56165    -1.28555
O     -0.21977    -3.50834     1.41928
H      0.24948    -2.92394     2.02662
O     -1.18763    -2.60307     0.89259
H     -0.80612    -2.36480     0.01801
