 32
-1213.3078027264755
O      3.49953     0.93611     1.19631
H      2.96051     1.72992     1.31385
O      2.44478    -0.03350     1.22717
H      2.74118    -0.67052     1.89491
O     -1.44920    -1.63881    -0.36068
H     -1.66765    -0.92881     0.28263
O     -2.72227    -2.19205    -0.66067
H     -3.06137    -1.53175    -1.27730
O     -3.70299     0.53432    -1.95864
H     -4.11877     1.14504    -2.57419
O     -2.95166     1.41387    -1.12254
H     -2.02618     1.20806    -1.39195
O      0.17497     0.67594    -2.51542
H      0.84445     0.00518    -2.27661
O     -0.35508     0.92754    -1.21147
H      0.24062     1.62246    -0.86694
O      1.32898     2.69650     1.25266
H      0.65246     2.02257     1.45335
O      1.10886     2.86853    -0.14470
H      1.02342     3.82296    -0.22764
O      1.83203    -0.90794    -1.19099
H      2.04700    -0.53806    -0.30852
O      1.15122    -2.11536    -0.86238
H      0.21903    -1.83028    -0.84784
O      1.53228    -2.60817     1.72774
H      1.60387    -2.57308     0.75035
O      0.31546    -1.88842     1.90645
H     -0.34928    -2.44624     1.47532
O     -0.43782     0.67241     1.64484
H     -0.03383    -0.20518     1.80322
O     -1.79496     0.30409     1.42022
H     -2.10347     0.99375     0.81090
