 28
-1061.6456675315765
O     -1.85878    -0.88612     0.76662
H     -2.38029    -0.38798     0.10000
O     -1.01657    -1.67535    -0.07254
H     -0.57982    -1.01029    -0.64299
O      0.93835     0.70010     1.49025
H      1.03867    -0.20587     1.84963
O     -0.37867     1.05209     1.91860
H     -0.91829     0.33210     1.53079
O      0.91749    -2.71612     1.48116
H      0.20463    -2.35203     0.90811
O      0.96876    -1.74364     2.52570
H      1.43412    -0.63360    -1.39643
O     -1.43284     2.87118    -0.19366
H     -0.90737     2.62720     0.58469
O     -0.46463     3.40994    -1.09842
H      0.09362     2.63141    -1.27931
O     -2.83497     0.76326    -1.07722
H     -2.31466     1.58268    -0.91390
O     -2.44019     0.38173    -2.38704
H     -3.25864     0.53090    -2.86993
O      1.13701     1.19117    -1.10547
H      1.24061     1.08181    -0.13739
O      0.61806    -0.09516    -1.45405
H      0.33298    -2.07357     3.17168
O      2.82214    -1.58751    -1.05810
H      3.66729    -1.49814    -1.50751
O      3.20479    -1.47292     0.31263
H      2.76265    -2.25110     0.67910
