 32
-1213.3069958588444
O      2.35925     1.18372     1.08487
H      2.62687     0.80192     0.22554
O      1.50540     2.24848     0.68748
H      0.64687     1.96509     1.03509
O     -1.74527    -0.41037    -1.25102
H     -1.49160     0.45978    -1.62725
O     -0.44434    -0.94422    -0.99758
H     -0.30552    -0.59254    -0.09171
O      0.06890     2.76459    -1.87656
H      0.75790     2.44835    -1.27074
O     -0.43053     1.56524    -2.44572
H      0.35875     1.14469    -2.82644
O     -1.30786     1.85893     0.31941
H     -1.48663     2.56705    -0.30990
O     -2.33243     2.01458     1.30145
H     -2.72092     1.13134     1.27123
O      1.76882    -0.15418    -2.20956
H      1.01782    -0.63528    -1.80919
O      2.76684    -0.22092    -1.18521
H      2.66512    -1.13366    -0.85012
O      1.86776    -2.39184     0.13779
H      1.56642    -1.94133     0.95583
O      0.92686    -3.45818     0.01623
H      0.21167    -3.02783    -0.47251
O     -0.25748    -0.30828     1.54473
H     -0.95762    -0.89587     1.90354
O      0.94819    -0.81047     2.15239
H      1.52676    -0.03291     1.99548
O     -3.06515    -0.90551     1.06413
H     -2.66527    -0.90850     0.17211
O     -2.32328    -1.95018     1.69292
H     -2.97066    -2.29136     2.31462
