 24
-909.9745064881016
O     -2.00700    -1.53160    -0.10917
H     -2.48493    -0.69034    -0.27672
O     -2.04265    -1.60633     1.31784
H     -2.22085    -2.54142     1.45836
O      0.53499    -1.33268    -1.00474
H     -0.37171    -1.44550    -0.65314
O      0.28314    -0.64741    -2.23126
H      0.62360     0.23086    -2.01799
O      3.11805    -0.57459    -0.70296
H      2.24980    -1.01231    -0.75827
O      2.96003     0.19046     0.49087
H      2.52958     0.99416     0.15354
O     -2.98008     0.93018    -0.43248
H     -3.78549     1.31073    -0.79568
O     -2.04757     1.14485    -1.49217
H     -1.26986     1.40708    -0.97363
O      0.12412    -0.11572     1.86954
H     -0.64038    -0.71291     1.74913
O      1.17950    -1.07158     2.03438
H      1.89210    -0.64502     1.51144
O      0.10761     1.74886     0.03965
H      0.22748     1.04846     0.73833
O      1.40350     2.32106    -0.09515
H      1.35249     3.06648     0.51030
