 36
-1364.9813633154936
O      2.21297    -1.43255     1.17385
H      1.97412    -0.72664     1.81227
O      2.79080    -0.71080     0.08100
H      2.16174     0.02774    -0.04854
O      2.07594    -2.18910    -2.06767
H      2.55391    -1.82317    -1.30039
O      1.06930    -1.18571    -2.20078
H      0.27155    -1.71280    -2.40159
O      1.07404     1.24927    -0.39375
H      1.03927     2.17361    -0.05793
O      0.76347     1.38347    -1.78313
H      1.02523     0.48349    -2.07794
O     -2.24259     0.09936    -0.90334
H     -2.51013    -0.71041    -1.36847
O     -1.97988     1.01632    -1.96496
H     -1.02329     1.17270    -1.86226
O     -1.12109    -2.61341    -2.74489
H     -1.12871    -3.50750    -3.10032
O     -1.92606    -2.72281    -1.57059
H     -1.23247    -2.80716    -0.88212
O     -1.93974     2.13467     0.84054
H     -2.26459     1.47395     0.19219
O     -2.52942     1.73760     2.07691
H     -1.82712     1.18836     2.45498
O      0.29791     3.03525     1.85166
H     -0.61600     2.90254     1.50515
O      0.92331     3.63947     0.72654
H      1.38580     4.37782     1.13037
O     -0.00998    -2.56680     0.29794
H      0.91705    -2.30175     0.51286
O     -0.73226    -1.51691     0.93977
H     -0.79748    -0.86078     0.22443
O      1.15083     0.56694     2.59463
H      0.96595     1.48626     2.32445
O     -0.16158     0.12990     2.96972
H     -0.34132    -0.55379     2.29050
