 36
-1364.9727930112406
O     -1.31426     2.32599    -0.65536
H     -1.94561     2.13212     0.06060
O     -0.46089     1.18984    -0.49927
H     -1.02714     0.51199    -0.93132
O     -2.71138     0.89412     1.14686
H     -1.95434     0.56032     1.67252
O     -3.23067    -0.31024     0.57160
H     -3.24647    -0.07067    -0.36425
O      2.65700     1.49861     2.63075
H      2.69144     2.38331     3.00408
O      1.55031     1.65086     1.74886
H      1.96526     1.49200     0.87205
O      2.77782     0.66602    -0.41874
H      2.98079    -0.14825     0.06593
O      1.83107     0.20183    -1.37851
H      1.01091     0.63557    -1.05694
O     -0.54085     0.17148     2.49334
H      0.22571     0.68457     2.15127
O      0.03239    -1.10966     2.75979
H     -0.50876    -1.66627     2.16339
O     -0.47122    -1.91250    -0.27681
H      0.41832    -2.07594     0.10361
O     -1.34187    -2.25327     0.80306
H     -2.08227    -1.63111     0.66378
O      1.17460     1.74386    -3.77117
H      1.68450     1.05006    -3.32880
O     -0.15340     1.44070    -3.33066
H     -0.25584     2.02365    -2.56297
O      2.43361    -1.40903     1.59995
H      1.64063    -1.21295     2.14774
O      1.92406    -2.43931     0.75746
H      2.25279    -3.24226     1.17376
O     -1.96015    -0.26828    -2.05304
H     -1.45291     0.03346    -2.82989
O     -2.16792    -1.65970    -2.31839
H     -1.54429    -2.02358    -1.66293
