 24
-909.9757375161529
O     -1.80925     0.79285    -0.39612
H     -1.36823     1.51258    -0.88857
O     -1.39300    -0.36506    -1.13037
H     -1.62517    -1.06595    -0.49791
O      1.43025    -0.01996    -2.11530
H      0.51170    -0.28701    -1.95910
O      1.74416     0.67332    -0.91290
H      1.46142     0.07262    -0.19778
O      1.79204    -1.90208     0.17647
H      2.53420    -2.05705    -0.41306
O      0.76178    -2.64058    -0.48717
H      0.38090    -3.11565     0.26414
O     -1.97034    -2.02945     0.96780
H     -2.71507    -1.89689     1.56573
O     -0.90507    -2.38408     1.84741
H     -0.41942    -1.54323     1.90852
O      0.02812     0.36135     1.45789
H     -0.72247     0.49542     0.83857
O      0.00768     1.55390     2.23428
H      0.15761     2.22507     1.55778
O      0.21309     3.50209    -0.28920
H      0.56263     4.27029    -0.74910
O     -0.00953     2.59119    -1.36630
H      0.75840     1.97495    -1.27073
