 20
-758.3107020664979
O     -0.47677    -2.01900    -1.04567
H     -0.19603    -1.85410    -0.11659
O     -0.42731    -0.69645    -1.59443
H     -1.27376    -0.31316    -1.31065
O      2.14779    -0.54704    -1.10564
H      1.19989    -0.54898    -1.37578
O      2.32102     0.81955    -0.73935
H      2.82798     1.16795    -1.47891
O     -0.05470     1.30487     1.59931
H     -1.00814     1.15249     1.64831
O      0.05238     1.76895     0.24500
H      0.89300     1.35824    -0.04008
O      1.80567    -1.72106     1.38253
H      2.05287    -1.47369     0.47845
O      0.42178    -1.36741     1.38420
H      0.44700    -0.41045     1.56940
O     -2.80813     0.71530     0.65109
H     -3.71544     1.01466     0.76291
O     -2.53348     1.13142    -0.69279
H     -1.78773     1.72645    -0.52759
