 20
-758.2985134629163
O     -4.56169    -1.03764     0.36801
H     -3.85630    -0.37838     0.29050
O     -3.79387    -2.24419     0.23696
H     -4.08032    -2.57184    -0.62238
O      3.88274     0.61027    -0.39755
H      4.75248     0.44399    -0.77143
O      3.69112     1.98590    -0.75152
H      2.97714     2.20016    -0.13476
O      1.03356     1.83230     0.53914
H      0.82881     1.14089    -0.13418
O      0.12665     1.46200     1.58050
H      0.72223     1.08209     2.23349
O      1.75779    -0.95492    -1.27902
H      2.44576    -0.32356    -1.01875
O      0.58684    -0.13935    -1.14642
H     -0.03804    -0.74290    -0.69982
O     -1.27290    -1.26699     0.46382
H     -2.09297    -1.79220     0.44411
O     -1.83614     0.04889     0.37581
H     -1.19932     0.55282     0.91179
