 24
-909.9811500265556
O     -3.44518    -0.67679    -0.25639
H     -2.82733     0.01060    -0.58298
O     -2.66795    -1.85122    -0.48892
H     -3.06074    -2.21681    -1.28705
O     -0.21540    -1.60396     0.38078
H     -1.17328    -1.69642     0.17925
O      0.30757    -1.63197    -0.94905
H      1.09616    -1.06583    -0.85264
O      2.22478     0.25039    -0.84626
H      2.49052     0.49288     0.04976
O      1.65705     1.47803    -1.32547
H      0.80115     1.16173    -1.68143
O     -1.61638     1.14703    -1.00649
H     -1.01058     1.21488    -0.23615
O     -0.78750     0.57995    -2.01729
H     -0.70238    -0.34791    -1.72635
O      1.82680    -0.10076     2.32501
H      1.89831    -0.15069     3.28431
O      1.97972    -1.46163     1.91677
H      1.12444    -1.58702     1.46075
O     -0.07931     1.32606     1.14446
H      0.59160     0.73762     1.55043
O      0.62752     2.56899     1.10288
H      0.89794     2.59261     0.17261
