 28
-1061.6356467692017
O     -1.10021    -0.37700    -2.17802
H     -1.02746     0.57565    -2.32862
O      0.07859    -0.84707    -2.85500
H      0.12619    -1.75373    -2.48139
O      0.10558     2.41346     2.10266
H      0.29911     2.64122     1.17286
O      1.21243     1.55803     2.39853
H      1.56395     1.97517     3.19076
O     -0.34602    -0.66424     0.31793
H     -0.72416    -0.60120    -0.59700
O     -0.86380    -1.92547     0.76397
H     -0.18485    -2.92104    -0.54119
O      0.35016     2.51323    -0.55801
H      0.86827     1.72173    -0.78684
O     -0.93597     2.25020    -1.10125
H     -1.41260     1.87481    -0.34612
O     -2.32513     1.09006     1.33174
H     -1.59134     1.40760     1.88191
O     -2.56154    -0.19043     1.91701
H     -3.48790    -0.11918     2.16466
O      1.57552    -3.25596    -1.16279
H      1.86197    -2.35403    -0.95703
O      0.18495    -3.09159    -1.42795
H     -1.59885    -1.57806     1.29007
O      2.32413    -0.68767     0.28964
H      1.36113    -0.70204     0.48082
O      2.52584     0.64383    -0.18364
H      2.63650     1.12879     0.64403
