 32
-1213.3105990542108
O      0.24766    -0.98436     2.72536
H      0.70109    -1.51826     2.03895
O      0.70859     0.32697     2.39729
H     -0.11890     0.78603     2.13559
O      1.65407    -0.16555    -2.81691
H      1.79525    -0.16968    -1.85818
O      0.37551    -0.78437    -2.90342
H      0.56940    -1.64197    -3.29832
O     -2.65512    -2.52945     2.37251
H     -3.50336    -2.42729     2.81545
O     -2.32936    -1.16383     2.11005
H     -1.46079    -1.09040     2.56115
O     -0.67472     2.71758     0.57465
H      0.27961     2.53326     0.66210
O     -1.24686     1.51963     1.09019
H     -1.32587     0.96847     0.28141
O      1.85366     1.98252    -0.01808
H      1.61501     2.16577    -0.95069
O      1.89250     0.55078    -0.00037
H      1.50946     0.37021     0.88177
O     -1.34491    -0.19872    -0.92686
H     -0.73414    -0.32258    -1.68478
O     -1.42424    -1.53010    -0.40425
H     -1.88596    -1.38604     0.45282
O      1.11025    -2.30000    -0.47173
H      0.16698    -2.05344    -0.35265
O      1.56665    -2.34982     0.88657
H      2.51460    -2.22973     0.76966
O     -0.60642     2.42758    -2.19260
H     -0.68380     2.71401    -1.26487
O      0.80622     2.54326    -2.41267
H      0.96598     1.77684    -2.98198
