 32
-1213.3105127301053
O      3.30060    -1.98221    -0.99681
H      2.36465    -2.19847    -0.86896
O      3.21921    -1.21080    -2.19522
H      3.83362    -1.66561    -2.77977
O      1.21754     0.87291     1.76592
H      1.62381     0.58985     0.92778
O      0.31662    -0.21038     2.03689
H     -0.55470     0.23178     1.94754
O     -1.49894     1.13163    -1.79232
H     -2.09138     0.76748    -1.10814
O     -0.53925     0.07061    -1.82418
H      0.27591     0.46072    -1.45772
O      2.32401     1.94513    -1.21406
H      1.65013     2.46047    -0.74265
O      1.90818     0.63190    -0.82107
H      2.53381     0.06584    -1.32849
O      0.38382     3.21316     0.23989
H      0.46140     2.64359     1.02151
O     -1.01572     3.18789    -0.02553
H     -1.04906     2.77672    -0.90601
O      0.56828    -2.00786     0.08003
H      0.36369    -1.44500     0.85769
O     -0.72636    -2.21826    -0.50124
H     -0.83293    -1.40589    -1.04022
O     -2.28934    -1.73395     2.15891
H     -2.36731    -2.12611     3.03417
O     -2.60952    -2.82994     1.29806
H     -1.87311    -2.74248     0.65975
O     -1.91372     1.11977     1.43198
H     -1.78830     1.94002     0.91595
O     -2.57530     0.26476     0.48804
H     -2.60152    -0.55221     1.02772
