 32
-1213.3068047257352
O      1.13714     0.52604     0.94947
H      1.22324    -0.27487     0.38926
O      2.20877     1.34682     0.49154
H      1.76820     2.21840     0.46553
O      1.37815    -2.86576    -0.79021
H      2.17497    -3.35697    -0.56921
O      1.81010    -1.53535    -0.58002
H      1.74926    -1.14513    -1.46897
O     -0.80710    -0.92427    -1.41847
H     -1.58781    -1.42065    -1.13410
O     -1.31621     0.40154    -1.58044
H     -1.56934     0.62932    -0.65328
O     -1.94537     0.65587     0.96907
H     -1.77132    -0.10310     1.56980
O     -1.12397     1.68545     1.52521
H     -0.24706     1.36390     1.23663
O      0.87682     1.77487    -2.31371
H      0.07699     1.23552    -2.11902
O      1.93764     0.82926    -2.14031
H      2.25997     1.09928    -1.26504
O      0.05204    -1.47765     2.88584
H      0.31840    -0.58427     2.63215
O     -1.26846    -1.52836     2.34480
H     -1.18418    -2.27786     1.72012
O     -2.06068    -3.06320    -0.46094
H     -2.81967    -3.39512     0.02507
O     -0.99695    -3.38604     0.42944
H     -0.22059    -3.19098    -0.12739
O      0.71456     3.48286    -0.28332
H      0.77767     3.08222    -1.17650
O     -0.62130     3.98516    -0.30960
H     -1.04544     3.43049     0.35840
