 40
-1516.6393860064775
O      3.33219     0.07861    -0.32636
H      2.99968     0.63135    -1.04998
O      3.59641    -1.17345    -0.95919
H      2.69705    -1.45894    -1.20528
O     -0.88570    -0.31011    -0.34375
H     -1.05287     0.10085     0.53631
O     -2.18542    -0.85396    -0.63652
H     -2.32677    -0.37095    -1.47850
O     -1.20553     0.59920     2.12464
H     -0.35170     0.76070     2.58300
O     -1.98561     1.76423     2.38897
H     -2.09395     2.09884     1.48959
O      1.51572     0.89212     1.42790
H      2.29438     0.46068     1.01830
O      1.41725     0.30434     2.71712
H      1.49395    -0.64641     2.49707
O     -1.82426     3.06245    -1.41646
H     -0.91223     3.05462    -1.04029
O     -2.63910     2.97283    -0.25954
H     -2.95737     3.87526    -0.17236
O      0.62906     2.59744    -0.51354
H      0.85783     2.02731     0.24392
O      1.32921     1.94232    -1.57523
H      0.59503     1.53746    -2.08182
O     -1.92658     0.71105    -2.76120
H     -1.99429     1.60266    -2.37275
O     -0.52663     0.62333    -3.00646
H     -0.34772    -0.32748    -2.86964
O      1.49775    -2.12850     1.68222
H      0.61232    -2.47008     1.47389
O      2.37109    -3.10550     1.13725
H      3.01938    -2.53556     0.70238
O      0.36073    -1.85097    -2.54836
H     -0.00673    -2.74044    -2.54142
O      1.01537    -1.81147    -1.28306
H      0.40114    -1.20951    -0.78629
O     -2.33837    -2.24901     2.59176
H     -2.12884    -1.35831     2.89783
O     -1.41595    -2.39980     1.51317
H     -1.93058    -2.06076     0.75862
