 24
-909.9738106401061
O     -1.78840    -1.74112    -0.05067
H     -2.49868    -1.18114    -0.40155
O     -1.87217    -1.41703     1.33901
H     -1.79202    -2.28844     1.73521
O      0.47265    -0.84093    -1.28620
H     -0.26239    -1.20207    -0.76186
O     -0.05935     0.41801    -1.71827
H      0.33555     1.02346    -1.06421
O      3.10600    -0.49234    -0.80403
H      2.15971    -0.68594    -0.93874
O      3.11782    -0.06458     0.55796
H      2.90267     0.87907     0.45551
O     -3.82954     0.44222    -2.05038
H     -4.31610     1.26902    -1.98237
O     -2.82038     0.62949    -1.05387
H     -2.01633     0.70651    -1.59291
O      0.30887    -0.03453     2.04242
H     -0.57788    -0.36849     1.82364
O      1.07719    -1.22507     1.81333
H      1.87340    -0.84937     1.37620
O      0.66843     1.98372     0.40881
H      0.64716     1.25461     1.07985
O      2.03553     2.38192     0.43214
H      2.03098     3.08568     1.08548
