 16
-606.6339830588911
O     -0.95746     1.33669     1.29297
H     -0.93578     1.35262     0.32116
O      0.02552     2.30865     1.63872
H     -0.52500     3.00131     2.01863
O     -0.61155    -1.35898     1.80923
H     -0.65631    -0.38969     1.75900
O      0.75501    -1.59299     1.45555
H      1.16923    -1.77237     2.30537
O     -0.76636     0.19698    -2.42671
H      0.03358    -0.06285    -1.92565
O     -1.62001     0.66031    -1.36682
H     -2.15584    -0.11661    -1.18305
O      1.78203    -1.40325    -1.63737
H      2.32646    -0.91769    -2.26121
O      1.32297    -0.32863    -0.82047
H      1.11158    -0.79855     0.01432
