 40
-1516.6469481304343
O      2.86208     1.69413     2.26564
H      3.12119     1.92433     1.35321
O      3.36943     0.35504     2.30307
H      2.54467    -0.17101     2.32801
O      3.44307     1.38626    -0.30741
H      2.54650     1.20125    -0.65280
O      4.02243     0.07647    -0.24538
H      3.99976    -0.04637     0.72331
O     -2.72232    -0.11099     0.39511
H     -3.63075    -0.14852     0.04960
O     -2.89709     0.48109     1.68029
H     -2.17217     1.12141     1.66610
O      0.11446     1.57379     3.23460
H      0.99990     1.77066     2.88745
O     -0.71017     2.33090     2.34955
H     -1.09430     2.97808     2.94898
O      0.64018     0.39057    -2.26521
H      1.16109    -0.42136    -2.07912
O      0.89238     1.11248    -1.04959
H      0.15536     1.74998    -1.05194
O     -1.29443    -1.83667    -1.81119
H     -2.26689    -1.90709    -1.77824
O     -0.88177    -2.40309    -0.57389
H     -1.08045    -1.70378     0.07149
O     -1.79847     1.63901    -1.35280
H     -2.05125     0.95564    -0.69947
O     -1.95308     0.90661    -2.57716
H     -1.05275     0.52897    -2.66787
O      1.28689    -1.27923     2.01001
H      1.54092    -1.69045     1.15519
O      0.02212    -0.72191     1.64988
H     -0.24461    -0.30531     2.48150
O      2.29562    -1.54797    -1.51035
H      3.05144    -1.07775    -1.09968
O      1.78090    -2.28163    -0.39924
H      0.84924    -2.43752    -0.66877
O     -4.29800    -0.29206    -1.99090
H     -3.47502     0.10582    -2.35129
O     -3.97319    -1.67767    -2.01770
H     -4.48155    -2.00266    -2.76730
