 36
-1364.9780474629038
O      3.90145     0.26403     0.76916
H      4.52141     0.75620     1.31550
O      2.90101    -0.04748     1.72744
H      2.98240    -1.00955     1.83594
O     -3.06708     0.57428    -0.33594
H     -2.46740    -0.19519    -0.37034
O     -2.10866     1.63558    -0.46692
H     -2.17282     1.85554    -1.42264
O      1.95642     0.66968    -1.73937
H      1.46797     1.16195    -1.04830
O      0.93435     0.42581    -2.70778
H      0.77591    -0.52486    -2.53974
O      0.47275     1.75188     0.22802
H     -0.47244     1.83974    -0.01341
O      0.37654     0.76571     1.26168
H      1.31721     0.52120     1.41571
O     -1.07427    -1.10529     0.08735
H     -0.54050    -0.47678     0.63282
O     -1.74540    -1.91960     1.03976
H     -2.03815    -1.24574     1.69650
O     -2.28540     0.11369     2.62201
H     -1.77792     0.88564     2.34269
O     -3.63524     0.48274     2.34812
H     -3.62216     0.51172     1.37458
O     -0.57497     2.64340    -2.67396
H     -0.03682     1.82994    -2.76011
O     -1.84268     2.12059    -3.07024
H     -2.14180     2.78836    -3.69345
O      0.86250    -2.12536     2.14000
H      0.09275    -2.69127     1.98744
O      1.95465    -2.87558     1.60746
H      1.95820    -2.59917     0.66860
O      0.91359    -1.96612    -1.56925
H      0.22790    -1.83749    -0.88597
O      2.13711    -1.80714    -0.84576
H      2.35419    -0.87485    -1.04524
