 28
-1061.64337786644
O      1.01820     0.79569    -2.19337
H      0.84653     0.77860    -3.14147
O      1.36003     2.16548    -1.94962
H      0.49027     2.48182    -1.61496
O      0.98891    -0.63021     2.58469
H      0.19454    -1.12001     2.30530
O      1.00386     0.42287     1.61621
H      1.67882     0.10646     0.98431
O     -1.11498     2.05997     1.68713
H     -0.35688     1.43448     1.75498
O     -2.21645     1.20469     1.99177
H     -1.18605     2.46129    -0.03220
O      0.02822    -2.69644    -0.63474
H      0.91905    -2.31155    -0.66063
O     -0.64559    -1.93380    -1.63795
H     -1.38475    -1.59532    -1.10793
O     -1.85239    -1.05875     0.60565
H     -1.96796    -0.23751     1.11979
O     -1.19044    -1.90834     1.54882
H     -0.71070    -2.46736     0.90668
O     -1.69090     1.23675    -1.37147
H     -0.89889     0.68227    -1.45731
O     -1.10526     2.49044    -1.00363
H     -2.47543     1.50142     2.86977
O      2.64286    -0.35178    -0.40723
H      2.21248     0.07307    -1.17496
O      2.51538    -1.72512    -0.75806
H      3.41463    -2.04340    -0.63654
