 36
-1364.9727727623765
O      2.39492    -0.51219    -0.36845
H      1.65311    -0.86180     0.17309
O      1.96079     0.83737    -0.55192
H      2.23957     1.24731     0.28512
O      0.39371    -1.07775     1.22639
H      0.04824    -0.38593     1.83267
O     -0.79263    -1.56255     0.58127
H     -0.44742    -1.75776    -0.32358
O      1.20954     2.98852     2.05456
H      0.60380     2.66552     1.36758
O      2.40112     2.29398     1.70499
H      3.03804     3.01296     1.64944
O     -0.84904     1.91944     0.15468
H     -1.61467     1.40363     0.46530
O     -0.61646     1.29721    -1.11698
H      0.30601     0.97850    -1.02565
O      0.27509    -2.14091    -1.76685
H      1.16915    -2.34552    -2.12090
O     -0.24035    -1.32309    -2.82893
H     -1.17877    -1.29463    -2.56398
O     -2.89724     0.31875    -2.09539
H     -2.05044     0.67239    -1.75613
O     -2.70167    -1.06475    -1.80269
H     -3.57646    -1.33530    -1.51008
O      0.33393     1.04123     4.00222
H      0.64417     1.89682     3.68139
O     -0.57455     0.70912     2.94485
H     -1.42516     0.63338     3.39906
O      2.59533    -2.42296    -3.03546
H      2.43320    -2.13403    -3.93792
O      3.60381    -1.49770    -2.60816
H      3.15284    -1.10170    -1.83951
O     -3.31680    -0.08104     2.25264
H     -4.25147     0.02205     2.05496
O     -2.76609     0.13846     0.95933
H     -2.16447    -0.63773     0.86946
