 24
-909.981804935831
O     -1.58064    -1.63506     0.10181
H     -2.36292    -1.30408    -0.36190
O     -1.72517    -0.94510     1.35398
H     -0.84808    -1.10602     1.76604
O      0.35670    -1.04648    -1.58572
H     -0.35088    -1.24996    -0.93269
O     -0.12988     0.14819    -2.19980
H      0.24480     0.82975    -1.60767
O      2.49881    -1.13338     0.06519
H      1.90213    -1.13642    -0.70765
O      3.22306     0.07766    -0.13882
H      4.12898    -0.23953    -0.07983
O     -2.50640     1.43981    -0.68338
H     -2.95857     2.17019    -1.12048
O     -2.73428     0.35157    -1.57755
H     -1.83873     0.26665    -1.96750
O      0.99836     0.23901     2.72898
H      0.42101     0.76826     2.15237
O      0.78315    -1.07167     2.19892
H      1.46757    -1.12745     1.50922
O      0.72570     1.80090    -0.28622
H      1.50668     1.37305     0.09502
O     -0.24115     1.63214     0.75671
H     -1.06029     1.47293     0.25072
