 36
-1364.9715706927734
O     -1.52340    -1.44140    -0.94142
H     -1.96916    -1.44577    -0.08042
O     -0.43915    -0.56658    -0.63357
H      0.32777    -1.15262    -0.43156
O     -3.31749    -1.82445     1.34943
H     -4.25127    -1.68718     1.16226
O     -3.18622    -1.25300     2.65199
H     -2.71581    -0.41737     2.44979
O     -0.28237    -1.95611     2.11843
H     -0.79207    -2.71647     2.42831
O      0.96081    -2.09481     2.81802
H      1.57298    -1.78520     2.12449
O      3.37901     0.39374    -1.93192
H      2.51258     0.74816    -2.22971
O      3.89311    -0.17065    -3.14009
H      4.72912     0.29874    -3.21009
O     -2.63531     1.07198    -1.71515
H     -2.28830     0.17091    -1.79672
O     -2.01788     1.70619    -2.83714
H     -2.77515     1.95720    -3.37058
O     -0.46996     0.58964     2.80449
H     -0.40554    -0.37510     2.65464
O     -1.64486     0.91125     2.04117
H     -1.24403     1.30902     1.24650
O      0.48631     2.25891    -2.07520
H     -0.42949     2.31508    -2.39861
O      0.78031     0.90646    -2.45705
H      0.23963     0.38968    -1.82320
O      2.16243    -1.46112    -0.35419
H      2.76747    -0.97833    -0.95137
O      2.53429    -0.92961     0.92304
H      2.20612    -0.00844     0.86922
O      1.41964     1.52260     1.23098
H      0.98330     1.26446     2.06601
O      0.27211     2.09003     0.59033
H      0.55616     2.18172    -0.34108
