 32
-1213.3120996383777
O     -1.01317    -2.43652    -1.21460
H     -0.23932    -2.68651    -0.68894
O     -0.59113    -1.13757    -1.62724
H     -1.22426    -0.91165    -2.32850
O      0.06763    -1.54476     3.02264
H     -0.32235    -1.12067     2.22406
O      1.00693    -0.55453     3.43875
H      0.59511    -0.19982     4.23284
O     -2.62879     1.53314    -1.54725
H     -2.78969     0.80565    -0.92853
O     -2.26287     0.86930    -2.75413
H     -1.39836     1.27106    -2.91941
O      0.62693     1.48395    -2.67565
H      0.47932     2.04547    -1.89256
O      1.67178     0.62174    -2.22855
H      1.19759    -0.22015    -2.16154
O     -0.53228     2.38783     0.83981
H      0.32110     1.93055     0.97480
O     -0.47226     2.75018    -0.53749
H     -1.37346     2.51379    -0.82241
O      1.66731     0.95418     1.34709
H      1.52371     0.32734     2.09016
O      2.50962     0.19572     0.47911
H      2.35055     0.62408    -0.37549
O      1.90075    -3.09783     1.37362
H      1.25964    -2.93530     2.07642
O      1.39809    -2.21971     0.36495
H      1.97484    -1.43627     0.45944
O     -0.95994    -0.40220     0.88679
H     -0.86571    -0.54248    -0.08151
O     -2.18140     0.32607     1.02135
H     -1.79926     1.21408     1.14876
