 40
-1516.6425410073812
O      2.12354     1.96672    -1.17804
H      1.44021     2.58196    -0.84806
O      2.96955     1.84608    -0.02997
H      2.56432     1.07200     0.41917
O      0.62382     0.23884     1.87464
H      0.40939     1.13466     1.53947
O      1.68683    -0.21588     1.04114
H      1.28127    -1.03248     0.66925
O      2.84650     4.27347     1.13556
H      2.97656     3.37619     0.76545
O      2.08119     3.94228     2.30262
H      2.45165     4.54422     2.95369
O     -0.04250     3.18512    -0.11853
H     -0.78078     2.66737    -0.49822
O     -0.04778     2.73073     1.23422
H      0.64810     3.30533     1.62240
O     -1.69328     1.38718    -1.29163
H     -0.97437     0.73380    -1.47035
O     -2.74128     0.56797    -0.77796
H     -2.62272     0.67420     0.18622
O      0.78252    -0.80772    -2.78516
H      0.74066    -1.70787    -2.43634
O      0.46640    -0.09112    -1.59810
H      1.21145     0.54966    -1.51951
O     -2.17253    -2.04744    -0.71452
H     -2.47964    -1.14072    -0.93833
O     -3.09879    -2.46485     0.29412
H     -2.66124    -2.07388     1.06802
O      0.29913    -3.75047    -2.49383
H      0.32748    -3.93959    -3.43824
O     -0.87247    -4.44907    -2.08591
H     -1.41464    -3.71305    -1.76426
O      0.45109    -3.64909     0.72542
H      0.82239    -4.10471    -0.03835
O      0.34235    -2.32987     0.20861
H     -0.59683    -2.26558    -0.08673
O     -1.75639    -0.86243     2.04377
H     -0.78785    -0.68538     2.00131
O     -2.25609     0.45469     1.84419
H     -2.63095     0.66315     2.70369
