 24
-909.9783910361087
O     -2.87779     0.04138     1.27705
H     -2.48944    -0.16451     0.39958
O     -2.62995     1.44240     1.36583
H     -3.48115     1.82227     1.12507
O      1.23305    -1.94205    -2.80827
H      0.41651    -1.99187    -2.29295
O      1.35831    -0.51980    -2.87193
H      1.84323    -0.39243    -3.69298
O      2.71518     0.68127    -0.04829
H      1.97481     1.30538     0.01631
O      2.02524    -0.54999    -0.28443
H      1.93256    -0.57013    -1.26310
O     -0.77871    -1.69286    -0.69223
H     -0.57112    -1.65056     0.26651
O     -1.44814    -0.44823    -0.90291
H     -0.73161     0.19883    -0.78780
O     -0.34272    -1.26769     1.90185
H     -1.10183    -0.72196     2.14959
O      0.74234    -0.34272     2.01501
H      1.25270    -0.54973     1.20229
O      0.62224     2.38979     1.33986
H      0.75442     1.59209     1.87815
O     -0.21810     1.87934     0.30703
H     -1.09078     1.84234     0.74695
