 36
-1364.9722207878906
O      2.48097     1.94760    -1.96321
H      2.99937     1.87160    -1.13834
O      1.24915     1.39732    -1.51832
H      1.50831     0.47319    -1.32295
O      0.51945     2.17576     1.26583
H      0.81697     2.30867     0.35343
O      0.04267     0.83659     1.18737
H     -0.64886     0.91729     0.49170
O     -1.65045    -1.44024     2.77574
H     -2.53853    -1.18230     2.47038
O     -1.16326    -0.21972     3.33402
H     -0.66929     0.16931     2.58425
O     -1.32927     1.41816    -2.19886
H     -0.36335     1.54065    -2.13215
O     -1.65224     1.22724    -0.81473
H     -2.46107     0.68804    -0.85463
O     -1.39201    -1.12444    -3.10230
H     -1.50219    -0.16931    -2.94534
O     -0.05529    -1.27514    -2.62680
H      0.39217    -1.63228    -3.39916
O     -3.51025    -0.84673     0.05328
H     -2.62930    -1.27921     0.08268
O     -3.93858    -0.97966     1.40396
H     -4.59152    -1.68248     1.33834
O      3.56198     1.92383     1.74794
H      2.61349     2.05834     1.88641
O      3.58950     1.32938     0.45491
H      3.17991     0.45702     0.61942
O      2.22675    -0.93587    -0.79257
H      3.05017    -1.34972    -1.06290
O      2.29949    -1.02500     0.62881
H      1.41962    -1.41530     0.83022
O     -0.11723    -2.12970     0.77020
H     -0.65203    -1.94309     1.58448
O     -1.06335    -1.70863    -0.22317
H     -0.55769    -1.66026    -1.06437
