 40
-1516.6449631169949
O      2.05651     3.15568    -0.54567
H      2.57139     3.81131    -1.02494
O      0.72682     3.44163    -0.96461
H      0.53878     2.68268    -1.56030
O     -1.01383    -1.23038    -0.04868
H     -1.06023    -0.42068    -0.59861
O     -2.24766    -1.87899    -0.34263
H     -2.02641    -2.19091    -1.23842
O     -0.08724     0.34850     3.35978
H      0.15409    -0.58171     3.17334
O      0.51815     0.92938     2.19162
H     -0.11587     1.63364     1.94962
O     -1.95393     2.36306     0.29406
H     -2.33796     1.68107     0.89483
O     -0.95036     2.93971     1.12991
H     -0.36515     3.33195     0.45835
O     -2.87418     0.26658     1.58654
H     -2.67297    -0.60945     1.21858
O     -2.79153     0.07792     3.00189
H     -1.84421     0.24441     3.17310
O      2.45797     0.02141    -1.57625
H      2.69993    -0.90463    -1.42851
O      2.42255     0.47661    -0.22202
H      2.31819     1.43688    -0.34717
O      1.32169    -3.33371    -0.98959
H      1.65890    -4.22199    -1.14178
O      2.50122    -2.65041    -0.57622
H      2.26250    -2.39123     0.34012
O     -1.26724     0.84330    -1.76601
H     -1.50454     1.56278    -1.13557
O     -0.03179     1.28947    -2.33048
H      0.50811     0.48113    -2.26050
O      0.44483    -1.92010     2.09237
H     -0.06878    -1.74812     1.27367
O      1.76562    -1.51613     1.75433
H      1.65674    -0.58639     1.49079
O      0.18062    -1.57407    -2.68755
H      0.46967    -2.26286    -2.06181
O     -1.21968    -1.84650    -2.80803
H     -1.53940    -0.94643    -2.93629
