 32
-1213.3098188298227
O      2.04678    -0.08320     2.77443
H      1.14751    -0.37670     2.57517
O      2.54190     0.28075     1.48867
H      1.98033     1.05460     1.26487
O     -1.30596     0.79143    -1.72602
H     -0.61778     1.42644    -1.42004
O     -0.60901    -0.45621    -1.68606
H     -1.25253    -1.04317    -1.23399
O     -2.84371     1.45355     1.03444
H     -3.54996     2.09994     1.11664
O     -3.34312     0.62891    -0.00940
H     -2.67527     0.78954    -0.71400
O      0.51765     2.36371    -0.55621
H      1.41907     2.12432    -0.86840
O      0.59237     1.94194     0.81011
H     -0.09538     1.25391     0.84729
O      2.85942     1.27633    -1.30580
H      2.70071     0.31076    -1.17410
O      2.72183     1.38285    -2.72276
H      3.62568     1.58764    -2.97871
O      1.67323    -1.78478     0.10866
H      2.18373    -1.16039     0.68325
O      1.89604    -1.18278    -1.17316
H      0.98787    -0.91657    -1.42642
O     -0.79815    -1.67291     2.34396
H     -1.61494    -2.06174     1.99835
O     -0.50051    -0.76106     1.29300
H      0.16732    -1.25687     0.76926
O     -2.24534    -2.25727    -0.58921
H     -2.84737    -2.85686    -1.04630
O     -2.95634    -1.97551     0.61509
H     -3.16280    -1.02765     0.48312
