 24
-909.9817509878584
O      0.46900    -1.67332    -1.06223
H      0.91480    -0.89032    -1.43107
O     -0.91118    -1.38720    -1.26283
H     -1.23720    -1.26975    -0.34984
O     -2.06030    -0.98889     1.08738
H     -2.41989    -1.46017     1.84614
O     -2.63488     0.30768     1.21819
H     -1.84296     0.79637     1.52726
O      2.56161     0.65638    -0.26283
H      1.81583     1.21956     0.04552
O      2.12562     0.38397    -1.58768
H      2.95626     0.38457    -2.06930
O     -1.46802     0.94416    -2.44728
H     -1.23646     0.02878    -2.19669
O     -1.65091     1.53562    -1.15721
H     -2.42379     1.07313    -0.80085
O      0.95490    -1.26011     1.52166
H      0.83516    -1.65898     0.63560
O      2.37345    -1.27504     1.65712
H      2.60825    -0.59752     1.00313
O      0.34657     1.82101     0.55354
H     -0.39308     1.73280    -0.08732
O     -0.14886     1.14745     1.71148
H      0.32741     0.28618     1.66906
