 28
-1061.6428674921615
O     -1.22280    -0.21229    -2.45324
H     -0.35582     0.09794    -2.10086
O     -1.50412    -1.39265    -1.69893
H     -1.53766    -1.06397    -0.78248
O      0.75776     0.95431    -1.10884
H      0.36195     0.85505    -0.21571
O      0.29554     2.23022    -1.53449
H     -0.64570     2.24208    -1.27972
O      1.49524    -1.46615     2.82489
H      1.17041    -1.76710     1.95602
O      0.48266    -0.52408     3.16825
H      1.75671    -1.29939    -0.06671
O     -0.71161     0.60811     1.07640
H     -0.29265     0.16888     1.84718
O     -1.77064    -0.29786     0.76650
H     -2.44782     0.32780     0.47156
O     -2.35884     2.48567    -1.11627
H     -2.83733     3.05906    -1.72399
O     -3.06677     1.25619    -1.24533
H     -2.46852     0.75470    -1.84651
O      0.91050    -2.91033    -0.62384
H      0.18971    -2.63562    -1.20976
O      0.97154    -1.78407     0.24584
H      0.04229    -0.94811     3.91107
O      3.05845     1.40413     0.79215
H      2.61790     1.51447    -0.06065
O      3.15348    -0.02646     0.82960
H      2.91422    -0.20700     1.74705
