 32
-1213.3082215949967
O      0.39907    -1.58134    -0.77183
H      0.86686    -1.19839     0.00445
O      0.90146    -2.91709    -0.80189
H      0.68519    -3.21585     0.09346
O     -0.46170    -2.86285     2.44876
H      0.09884    -2.11708     2.72549
O      0.50744    -3.69926     1.82136
H      0.32974    -4.54612     2.23937
O     -1.26267     0.21217    -2.60685
H     -1.59114     0.12660    -3.50718
O     -2.34054     0.86020    -1.93122
H     -1.87907     1.66718    -1.61809
O     -1.87428     2.96461     0.34597
H     -2.08854     2.08626     0.69059
O     -0.88290     2.63117    -0.62214
H     -0.03976     2.73367    -0.12871
O      2.34705     1.77448     0.21950
H      1.98738     1.56374    -0.68004
O      1.48092     2.82952     0.62974
H      2.07114     3.58795     0.62924
O      1.18356     1.02747    -2.01774
H      0.25255     0.78743    -2.21724
O      1.88130    -0.13453    -2.47718
H      1.40887    -0.85072    -2.00464
O      0.59814    -0.26693     2.36312
H     -0.13820     0.01610     1.78186
O      1.61414    -0.57840     1.39786
H      1.98237     0.30274     1.18174
O     -2.47354    -0.75351     1.50954
H     -1.92708    -1.54344     1.64874
O     -1.56438     0.09042     0.81919
H     -1.68089    -0.13943    -0.12051
