 36
-1364.9776327470533
O     -0.29476    -0.33906    -1.83542
H     -0.12193    -0.94501    -1.07174
O      1.00378    -0.08678    -2.36422
H      1.19869    -0.91352    -2.82166
O     -2.58344     0.81581    -1.07396
H     -1.77141     0.40756    -1.44097
O     -2.68225     0.17456     0.19375
H     -2.33691     0.85071     0.81083
O     -1.59613    -2.26198     0.19295
H     -1.99527    -1.36362     0.18319
O     -0.20356    -1.96204     0.21653
H     -0.05157    -1.65006     1.14019
O      1.51407    -3.47215    -1.58376
H      0.86149    -3.12539    -0.95101
O      0.80537    -3.32287    -2.81038
H      0.65119    -4.23736    -3.06492
O      0.98706     1.64816     0.18571
H      0.41459     2.22121    -0.35161
O      0.87116     2.23704     1.48695
H      1.29046     1.52135     2.00357
O     -1.41291     1.06186     3.18222
H     -1.54681     1.65425     3.92873
O     -1.70476     1.90130     2.06917
H     -0.79998     2.20076     1.80810
O     -0.68569     3.28453    -1.33422
H     -0.76710     3.91588    -2.05596
O     -1.93997     3.40333    -0.66454
H     -2.33247     2.53416    -0.88801
O      1.61051    -0.15507     2.44161
H      1.98330    -0.54683     1.62866
O      0.36307    -0.84384     2.55914
H     -0.24419    -0.12452     2.81805
O      2.42791    -0.81609    -0.02426
H      2.10656    -0.01201    -0.47109
O      3.47682    -1.27444    -0.86440
H      3.06126    -2.06930    -1.22657
