 36
-1364.973414258157
O      0.30310     0.39521    -1.43596
H      1.19921     0.83882    -1.44122
O     -0.45891     1.14161    -2.38693
H     -1.32527     1.04348    -1.96646
O     -1.47362    -2.65217     0.60208
H     -1.26421    -2.59223    -0.34720
O     -0.65132    -1.62634     1.13462
H      0.27024    -1.91255     0.93982
O     -0.87163     0.76015     2.29650
H     -0.85848    -0.18059     2.01984
O      0.11883     1.30989     1.43099
H     -0.18322     0.99995     0.55502
O      2.55021     0.36664     1.94872
H      1.68111     0.82493     1.85592
O      3.44420     1.26408     1.30484
H      3.85519     1.72369     2.04282
O     -2.25922     0.20006    -0.24837
H     -2.28951    -0.66086     0.20300
O     -3.62839     0.44882    -0.60221
H     -3.88858     1.01893     0.14007
O     -3.19620     2.74006     1.94298
H     -2.59010     1.98588     1.97405
O     -4.40300     2.07853     1.53802
H     -4.92779     2.82746     1.24153
O      2.73256     1.36325    -1.28793
H      3.17881     1.36805    -0.42225
O      3.37329     0.28476    -1.96696
H      3.03454    -0.49190    -1.48616
O      2.37052    -1.84772    -0.67222
H      1.60337    -2.19975    -1.16890
O      1.92285    -1.95524     0.67134
H      2.32374    -1.17044     1.09426
O      0.38411    -2.72072    -2.19707
H      0.38686    -2.77596    -3.15707
O     -0.76329    -1.91754    -1.93559
H     -0.34174    -1.03464    -1.77750
