 20
-758.3121948598133
O      0.65432    -1.10399    -1.29038
H     -0.05024    -1.39452    -0.67065
O      0.15079     0.15579    -1.74308
H      0.43256     0.75462    -1.02681
O      2.72604    -0.78723     0.40177
H      2.06334    -0.92520    -0.30460
O      2.85514     0.63153     0.33137
H      3.78916     0.75279     0.52399
O      0.47675     0.92248     1.40865
H      1.41570     0.83465     1.14569
O      0.00526     1.78172     0.36875
H     -0.94875     1.58533     0.36358
O     -1.18850    -1.82170     0.44195
H     -1.99447    -1.30593     0.29145
O     -0.77456    -1.42932     1.75623
H     -0.27039    -0.61214     1.58112
O     -2.49953     0.15157    -1.18405
H     -1.57327     0.19336    -1.50096
O     -2.53372     1.24521    -0.27163
H     -3.09524     1.87724    -0.73021
