 16
-606.6383919091614
O     -1.09589     2.58564     1.68802
H     -1.93512     2.72966     2.13279
O     -1.26046     1.23997     1.23889
H     -1.29049     1.34082     0.26445
O      1.20113     0.11141     1.16602
H      0.35909     0.53436     1.42477
O      0.86894    -1.26612     1.39024
H      1.64101    -1.56222     1.88180
O      0.46248     1.37951    -1.55586
H      0.92483     1.00798    -0.79049
O     -0.84211     0.80771    -1.41655
H     -0.65313    -0.14744    -1.47427
O      0.78879    -2.42980    -1.86172
H      0.29561    -3.16698    -2.23085
O     -0.21648    -1.83094    -1.04391
H      0.24164    -1.76796    -0.18599
