 28
-1061.6436280556743
O     -0.59068    -0.96795    -3.26900
H     -0.70786    -1.17605    -4.19981
O     -0.58289    -2.27083    -2.67748
H      0.24618    -2.21572    -2.15373
O      1.71200    -0.76894     2.20119
H      1.79465    -1.48901     1.54484
O      3.05145    -0.29234     2.30350
H      3.22538    -0.44814     3.23517
O     -1.27601    -1.12334     0.82180
H     -1.58169    -0.58823     0.05798
O     -0.90575    -0.12482     1.77583
H      0.05465    -2.05880     0.25281
O     -1.16425     1.57903    -1.18740
H     -1.76348     2.05493    -0.57692
O     -1.87046     0.33831    -1.33706
H     -1.45084    -0.04569    -2.13624
O     -2.58247     2.62730     0.81351
H     -2.92858     3.48661     1.06946
O     -1.40106     2.54514     1.61120
H     -1.33713     1.58223     1.73530
O      1.42147    -1.71476    -1.01479
H      1.39065    -0.77076    -0.75140
O      0.96915    -2.39134     0.15662
H      0.04877    -0.28412     1.86922
O      2.05898     1.89408     0.21603
H      2.40881     1.41766     0.97553
O      1.28935     0.84627    -0.37527
H      0.43375     1.27661    -0.58871
