 40
-1516.6393667865937
O     -1.75679     3.08295    -0.76738
H     -1.37709     2.47925    -0.08851
O     -1.34257     2.45288    -1.98669
H     -2.00795     1.76681    -2.13169
O      4.54010     0.72750     3.00424
H      4.50929     0.77658     3.96393
O      3.14816     0.71432     2.68653
H      3.05470     1.54798     2.20146
O     -0.50426     2.09049     2.20956
H      0.13014     2.72890     1.85036
O     -0.80238     1.37226     1.01969
H     -0.19701     0.59027     1.06940
O      0.04873    -4.37333    -0.36300
H     -0.86886    -4.35293    -0.06088
O      0.40096    -2.99899    -0.25795
H      0.18850    -2.66010    -1.14896
O     -2.02837    -1.13704     0.38378
H     -1.73279    -0.73749    -0.46962
O     -3.08208    -0.26213     0.77644
H     -2.61878     0.28270     1.42649
O      0.81822    -0.72955     1.09445
H      0.60076    -1.64484     0.81319
O      2.03985    -0.51534     0.37424
H      2.64973    -0.36429     1.11427
O      1.19271     0.54432    -1.95640
H      1.62815     0.18277    -1.15767
O      1.22757     1.94756    -1.68708
H      0.28526     2.19633    -1.83332
O      2.40941     2.58203     0.60510
H      1.96953     2.33510    -0.24380
O      1.53786     3.61881     1.07859
H      2.04187     4.40804     0.85946
O     -2.82386    -3.62000    -0.21934
H     -2.57775    -2.71759     0.08363
O     -2.96312    -3.39469    -1.62419
H     -3.91902    -3.40347    -1.74282
O     -0.87497    -1.88458    -2.34429
H     -1.71994    -2.34917    -2.15939
O     -1.21582    -0.53515    -2.02838
H     -0.33589    -0.09367    -2.10685
