 20
-758.3003020513473
O      0.19310    -1.93255    -0.06322
H     -0.23109    -1.71877    -0.91274
O      1.45885    -1.27949    -0.22663
H      1.86521    -1.44649     0.64320
O      2.91461     0.24375     1.86304
H      2.09892     0.73574     1.69844
O      2.36262    -1.00416     2.28599
H      2.94416    -1.23727     3.01531
O      0.67808     2.12257    -0.48813
H     -0.20672     2.30255    -0.83631
O      0.39437     1.04839     0.41878
H      0.72769     0.25141    -0.05484
O     -2.28358    -1.33331    -1.58608
H     -2.37869    -0.56230    -1.01084
O     -1.06290    -0.99163    -2.24263
H     -1.19399    -1.37580    -3.11390
O     -2.32543     0.93528     0.33453
H     -1.36702     0.92227     0.53697
O     -2.42972     2.16015    -0.40891
H     -2.83437     2.74074     0.24369
