 16
-606.6351119973872
O     -1.65360    -0.36011     1.34992
H     -2.16266    -1.07176     1.75176
O     -0.45681    -0.38540     2.14799
H      0.01007     0.38650     1.77218
O      0.66762     1.80545     0.96069
H      1.19714     1.40048     0.24807
O     -0.39663     2.37663     0.18759
H     -1.14613     2.19354     0.76335
O      1.70925     0.33990    -1.06894
H      0.85939    -0.08546    -1.29243
O      2.41816    -0.73631    -0.45173
H      3.16146    -0.82725    -1.05376
O     -0.89642    -0.50861    -1.22144
H     -1.18791    -0.48225    -0.28642
O     -1.11766    -1.88150    -1.55045
H     -1.73491    -1.78905    -2.28144
