 36
-1364.9811929824882
O     -2.55799     2.56687    -2.17676
H     -2.01728     2.94028    -1.45514
O     -2.07468     1.22211    -2.19577
H     -2.23764     0.90080    -1.29748
O     -1.30398    -0.08017     0.42092
H     -0.57955    -0.49525    -0.11156
O     -0.63830     0.90043     1.22609
H      0.03206     0.34080     1.68722
O     -1.69728    -1.34161     3.49718
H     -0.77899    -1.04684     3.43406
O     -1.88160    -1.94587     2.22160
H     -1.91024    -1.17575     1.61411
O      0.49375    -1.28654    -1.07878
H      0.48138    -0.76694    -1.91668
O     -0.50357    -2.25690    -1.36162
H     -0.38933    -2.84652    -0.59934
O      0.37772     0.53226    -2.96826
H     -0.52924     0.88935    -2.84661
O      1.16191     1.72371    -3.04949
H      1.89615     1.47068    -2.46927
O      2.41324    -0.46385     2.13164
H      2.34949     0.26958     1.48984
O      1.03651    -0.81962     2.22992
H      1.04994    -1.75609     1.93650
O     -0.83819     3.17186    -0.20320
H     -0.74658     2.38446     0.37232
O      0.47169     3.25538    -0.77310
H      0.30980     3.08132    -1.71339
O     -0.29112    -3.70593     0.98292
H     -0.89975    -3.18156     1.54763
O      0.95740    -3.37991     1.58412
H      1.21686    -4.20356     2.00908
O      2.04666     1.34992     0.21192
H      1.49510     2.07667    -0.15243
O      2.59805     0.75120    -0.95982
H      2.25403    -0.14911    -0.86639
