 40
-1516.6398241683812
O      3.12060     0.97469    -1.66844
H      2.37256     1.30407    -2.19899
O      2.42141     0.54114    -0.49452
H      2.60428     1.25182     0.14061
O     -1.75305    -1.78777     1.20262
H     -0.95816    -2.35077     1.24574
O     -2.17850    -2.02793    -0.14380
H     -3.05541    -1.59312    -0.12637
O      1.55557     3.06976     0.33092
H      1.19164     3.15464    -0.56601
O      0.36764     2.91922     1.11612
H      0.63194     2.23075     1.74693
O      0.55557    -3.23767     1.18205
H      1.13014    -2.79759     0.51582
O      1.32153    -3.03935     2.37349
H      2.14171    -3.50291     2.17758
O     -4.81097     0.11618    -1.00997
H     -5.76535     0.01899    -0.95423
O     -4.40311    -0.49835     0.20848
H     -3.97302     0.23787     0.67631
O     -0.25995    -0.47793    -1.10692
H     -0.94928    -1.12488    -0.82219
O     -1.01401     0.45018    -1.90743
H     -1.52441     0.90810    -1.20699
O      0.91137     2.01244    -2.90353
H      0.15897     1.42920    -2.64475
O      0.57824     3.22095    -2.22514
H      0.80430     3.87785    -2.88996
O      2.33629    -2.13477    -0.44019
H      2.47631    -1.15628    -0.43575
O      3.63422    -2.64734    -0.16669
H      3.84561    -3.04928    -1.01315
O      0.44634     0.15334     1.72700
H      0.58488     0.08883     0.75968
O      1.68087    -0.32018     2.25391
H      1.49713    -1.27313     2.36598
O     -2.43410     1.03038     1.44876
H     -1.82327     0.28157     1.55023
O     -1.92336     1.68839     0.28934
H     -1.20505     2.24745     0.64954
