 40
-1516.6406307420177
O      1.44093    -0.64504    -2.36059
H      1.74724    -1.25503    -1.64607
O      1.39321    -1.51004    -3.49209
H      2.26043    -1.37953    -3.88558
O     -0.35291    -1.47837     0.45199
H     -0.37435    -2.43303     0.28819
O     -1.72052    -1.07854     0.32667
H     -1.67707    -0.64771    -0.55496
O      0.35799     2.26478     3.48965
H      0.32448     2.07290     4.43195
O      1.69078     1.92794     3.12125
H      1.60024     0.96775     2.92182
O     -1.11747     0.21274    -1.91419
H     -0.20194    -0.05559    -2.12763
O     -0.90372     1.51192    -1.35787
H     -1.82993     1.80361    -1.20066
O     -1.46741     2.05647     1.53446
H     -0.78953     2.20720     2.21884
O     -2.19441     0.97073     2.12090
H     -2.05334     0.26930     1.46143
O      1.47304     1.44796    -0.03437
H      0.54771     1.54834    -0.35293
O      1.81431     2.74011     0.45651
H      1.89162     2.55090     1.40575
O     -3.33167     3.33774     0.08018
H     -2.68736     2.90867     0.67841
O     -3.41724     2.31196    -0.92175
H     -4.03184     2.70458    -1.54915
O     -1.22528    -2.87926    -2.01273
H     -1.89642    -3.37833    -2.49188
O     -0.02220    -3.54240    -2.40860
H      0.40789    -2.83790    -2.92956
O      1.32762    -0.53931     2.25349
H      0.63636    -0.81993     1.61657
O      2.47885    -0.45518     1.42083
H      2.21405     0.29875     0.83786
O      1.52061    -3.47159    -0.14597
H      1.08853    -3.66148    -0.99388
O      2.33113    -2.35451    -0.50069
H      2.41090    -1.87221     0.35099
