 40
-1516.6471208888936
O      1.86852     2.76667     0.83327
H      0.96608     3.05178     0.56949
O      1.58434     1.87042     1.91310
H      1.98462     2.33242     2.65723
O     -0.29451     0.23712    -1.79367
H      0.09158    -0.02383    -0.92152
O      0.27474     1.53138    -2.00008
H      1.24733     1.35039    -2.00991
O     -0.58066     3.26289    -0.17384
H     -0.40120     2.65555    -0.92316
O     -1.58205     2.57973     0.58270
H     -2.14736     2.14446    -0.09225
O     -1.91889    -2.66708     2.54824
H     -1.62971    -3.22492     3.27430
O     -0.65927    -2.27777     2.00115
H     -0.80662    -2.46249     1.04889
O     -3.22711    -0.28618    -0.31202
H     -2.88691    -0.08315     0.58353
O     -2.77408     0.83515    -1.07230
H     -1.97179     0.48213    -1.50943
O      2.02371    -0.97781     0.76305
H      2.54526    -0.16405     0.71589
O      0.72618    -0.44827     0.52839
H      0.30799    -0.45418     1.41285
O      3.42342     1.14205    -0.60508
H      2.85901     1.85691    -0.24380
O      2.86322     0.96954    -1.91089
H      2.96651     0.00735    -2.03476
O     -2.36293     0.00076     2.20345
H     -2.20568    -0.86513     2.61591
O     -1.10404     0.64382     2.40562
H     -1.19338     1.41730     1.81218
O      2.76492    -1.76503    -1.77355
H      2.48850    -1.77637    -0.84012
O      1.57279    -2.18569    -2.41923
H      1.87446    -2.96943    -2.88668
O     -0.89400    -2.54409    -0.65392
H     -0.26694    -2.31352    -1.35827
O     -2.14821    -2.54062    -1.33771
H     -2.57245    -1.74260    -0.96329
