 20
-758.3123296929949
O     -0.20582    -2.13468     0.67592
H     -0.84811    -1.40422     0.66932
O      0.44587    -1.97799    -0.58965
H      1.22869    -1.46116    -0.30004
O      1.68590    -0.92426     2.12544
H      1.03405    -1.59703     1.86727
O      1.97363    -0.38442     0.83030
H      1.44701     0.43587     0.84654
O      0.47083     1.85326     0.86057
H     -0.49578     1.81462     0.94072
O      0.60217     2.43270    -0.43793
H      1.44112     2.89117    -0.34257
O     -0.94247    -0.14506    -1.99474
H     -0.48317    -0.94857    -1.67494
O      0.15759     0.64411    -2.45227
H      0.25655     1.27386    -1.72270
O     -2.09066    -0.24733     0.92058
H     -3.03298    -0.43751     0.97720
O     -2.07986     0.94638     0.14028
H     -1.75832     0.59819    -0.72546
