 36
-1364.9788876254006
O      1.78682     1.04647     2.35293
H      2.21540     1.30718     3.17046
O      0.93410     0.00984     2.83431
H      1.17763    -0.73519     2.23927
O     -1.06080     2.10700     0.30504
H     -1.21711     2.09527     1.27767
O     -2.25426     1.48198    -0.17473
H     -2.29537     1.84999    -1.06969
O      0.74999    -1.86284    -0.02452
H     -0.08879    -1.62137     0.44079
O      1.70595    -1.83720     1.04460
H      2.46587    -1.37562     0.63508
O      1.33801     1.24942    -0.62856
H      0.51016     1.55302    -0.20026
O      0.86405     0.30200    -1.59173
H      0.83138    -0.52640    -1.06052
O     -0.46657    -2.27254    -2.84815
H      0.16978    -2.51652    -2.16607
O     -1.48233    -1.71245    -2.02445
H     -1.64680    -0.85303    -2.46489
O     -1.11055     1.71534     2.94314
H     -0.29481     1.18599     3.06673
O     -2.13598     0.79057     3.29934
H     -1.95979     0.05206     2.69900
O     -1.88350     0.59046    -3.29008
H     -1.71365     0.68106    -4.23451
O     -1.11681     1.65282    -2.72343
H     -0.33322     1.16831    -2.37455
O      3.54825    -0.08607     0.10509
H      2.90452     0.58133    -0.21453
O      4.22144    -0.45239    -1.09115
H      5.11862    -0.17530    -0.88770
O     -1.48048    -0.84026     0.86480
H     -1.81229    -0.02688     0.40987
O     -2.38756    -1.86530     0.47241
H     -2.17217    -1.93890    -0.47921
