 32
-1213.3126001270946
O      1.96306    -0.10738     3.29932
H      2.56989     0.16727     3.99326
O      2.86651    -0.51646     2.27258
H      2.47902    -1.37157     2.03191
O     -0.88873    -1.28413     0.85597
H     -0.27890    -0.68736     0.37937
O     -1.42302    -2.06338    -0.21809
H     -0.64648    -2.63011    -0.41334
O     -2.43800     0.10270    -1.55769
H     -2.12988    -0.76042    -1.21444
O     -1.58932     0.30264    -2.69123
H     -1.21164     1.17776    -2.49281
O      0.74868     1.01024     1.08875
H      1.19536     0.87008     1.93965
O      0.42923     2.40623     1.10727
H     -0.54725     2.33880     1.01172
O      0.96760     2.07088    -1.50764
H      0.88483     2.38051    -0.58245
O     -0.23515     2.56530    -2.08513
H      0.11319     3.20378    -2.71332
O      1.13103    -0.67844    -1.23894
H      1.22512     0.27434    -1.42768
O      0.63420    -1.21080    -2.46908
H     -0.21635    -0.73926    -2.56795
O      1.05912    -3.05246    -0.04692
H      1.35657    -2.22242    -0.46375
O      1.21714    -2.75672     1.34346
H      0.37755    -2.28479     1.49516
O     -2.62151     1.16241     1.45185
H     -2.02937     0.39665     1.45842
O     -2.07639     1.92175     0.37412
H     -2.32020     1.38216    -0.40576
