 40
-1516.6459582512896
O      3.28368     0.62839    -1.99428
H      3.10167     0.19421    -1.15137
O      3.38706    -0.48950    -2.88021
H      2.74292    -0.22548    -3.55308
O     -0.35764     2.58540     2.02971
H      0.53420     2.21010     1.88789
O     -0.52882     2.38575     3.43376
H     -1.21671     1.69709     3.43448
O     -2.34044     0.38300     2.95032
H     -2.23180     0.47232     1.97916
O     -1.67898    -0.85952     3.19881
H     -2.14501    -1.48724     2.62126
O     -2.42403    -3.03345     1.65804
H     -2.46247    -3.86975     2.13150
O     -1.41406    -3.28856     0.68845
H     -0.62741    -2.85214     1.08096
O      0.92859    -1.13311     2.75626
H      0.00147    -0.95411     3.01371
O      0.75125    -1.95343     1.59745
H      1.03897    -1.33127     0.89752
O     -1.29954    -1.36008    -1.48072
H     -1.65592    -2.14485    -1.03741
O      0.09457    -1.69387    -1.48158
H      0.33743    -1.46584    -2.39405
O      0.83141     2.04401    -1.42231
H      1.54359     1.81673    -2.03976
O     -0.33362     1.94330    -2.24451
H     -1.02922     2.03164    -1.55611
O     -1.93945     0.53326     0.35279
H     -1.63593    -0.00490    -0.41007
O     -1.82352     1.88946    -0.06758
H     -1.34670     2.26273     0.70661
O      1.83683     1.06898     1.56371
H      1.69181     0.39861     2.26190
O      1.54207     0.25547     0.42374
H      1.13007     0.90776    -0.18198
O      1.33049     0.42496    -4.49129
H      1.17851     0.19841    -5.41246
O      0.16265    -0.11936    -3.87879
H     -0.12894     0.64799    -3.34576
