 36
-1364.9753772955153
O      1.83124     0.19652    -0.43329
H      1.56913     0.83973     0.25957
O      1.24746     0.74203    -1.61493
H      1.23476    -0.04576    -2.18587
O     -2.02129     0.34521     0.39867
H     -2.19656    -0.03928    -0.48812
O     -1.27099    -0.70811     1.01646
H     -0.69073    -0.22526     1.64652
O      2.46043    -1.60364     2.04579
H      3.40572    -1.67437     2.21331
O      2.34761    -2.11316     0.72599
H      2.17948    -1.28987     0.21921
O     -0.27944    -1.49445    -3.71477
H     -0.23669    -2.23035    -4.33384
O      0.84557    -1.72068    -2.87035
H      0.41497    -2.12910    -2.08385
O     -2.25961    -0.82810    -2.00833
H     -1.60618    -1.02815    -2.70801
O     -2.93959    -2.07640    -1.88053
H     -2.41268    -2.50591    -1.19118
O     -0.99243     2.76926     0.30267
H     -1.41487     1.89667     0.47250
O     -1.02225     2.82976    -1.12067
H     -0.33989     2.18001    -1.33357
O      0.25501     4.56162     1.94743
H     -0.18933     4.02738     1.25824
O      0.23459     3.63623     3.03733
H     -0.55359     3.88860     3.52875
O      1.21505     1.49475     1.81731
H      0.85880     2.25778     2.33490
O      0.68814     0.37346     2.53461
H      1.40638    -0.27432     2.39834
O      0.08580    -3.54946     0.22268
H      0.96220    -3.22504     0.48718
O     -0.30557    -2.49230    -0.64511
H     -0.59543    -1.79729    -0.00811
