 40
-1516.6472938678487
O      3.64569    -1.02641    -1.94488
H      3.38875    -0.90207    -1.00995
O      2.39474    -1.44176    -2.50439
H      1.97295    -0.60384    -2.76094
O      0.33139     2.46722     1.35319
H      1.15248     1.93353     1.36186
O      0.04057     2.72596     2.72428
H     -0.71856     2.13811     2.85300
O     -2.21889     0.75970     2.26790
H     -1.82078     0.62108     1.39370
O     -1.96010    -0.49106     2.89512
H     -2.57798    -1.08442     2.42138
O     -3.05862    -1.85531     0.89780
H     -2.86042    -1.24201     0.17506
O     -2.20655    -2.96534     0.60008
H     -1.48301    -2.85952     1.24655
O      0.47354    -1.21605     1.99810
H     -0.33670    -0.88269     2.44563
O      0.17765    -2.60630     1.81704
H      0.61289    -2.73345     0.95137
O     -0.29283    -2.23103    -1.40521
H     -0.93065    -2.83231    -0.99021
O      0.91247    -2.60932    -0.72672
H      1.59027    -2.30260    -1.38955
O     -1.17807     3.20864    -0.65841
H     -0.62710     3.02164     0.13826
O     -0.22546     3.87168    -1.48137
H     -0.59307     4.75727    -1.55178
O     -1.29304     0.07168    -0.53156
H     -0.76003    -0.66516    -0.90771
O     -1.82096     0.75147    -1.66189
H     -1.72965     1.66556    -1.33736
O      2.60991    -0.55968     0.51313
H      1.89147    -0.81491     1.12941
O      2.45820     0.86126     0.49082
H      2.03324     0.97963    -0.38032
O      0.58846     0.78991    -2.77885
H     -0.37803     0.68220    -2.68393
O      0.86600     1.45110    -1.53704
H      0.62179     2.37180    -1.73433
