 32
-1213.306419225578
O      0.71020    -3.13354     2.08956
H     -0.03945    -2.52669     2.16611
O      1.11876    -2.94102     0.73435
H      0.48818    -3.47611     0.22237
O      0.45837    -0.47395    -2.14538
H      0.13092    -1.37582    -1.97068
O      1.80201    -0.73431    -2.56601
H      2.24767    -0.67735    -1.69775
O     -0.57625    -2.89900    -1.61722
H     -1.14334    -3.34514    -2.25494
O     -1.40653    -2.90363    -0.45218
H     -1.39879    -1.95431    -0.20726
O      1.66257     2.28356    -2.37578
H      1.56993     1.34897    -2.61770
O      1.02484     2.30682    -1.09864
H      0.08077     2.40960    -1.30206
O      1.39786     0.32839     0.57219
H      1.42417     1.02158    -0.13612
O      2.30503    -0.64659     0.05547
H      1.87772    -1.48000     0.34460
O     -2.58357     2.75024     0.44463
H     -2.94878     3.50999    -0.01525
O     -1.89146     2.10289    -0.62636
H     -1.86296     1.19101    -0.29326
O     -0.33249     1.68573     2.62413
H      0.51534     1.53246     2.18594
O     -0.56796     3.06833     2.34848
H     -1.31713     3.00509     1.73886
O     -1.10744    -0.40043     0.49062
H     -0.13802    -0.19938     0.51777
O     -1.37735    -0.67085     1.86680
H     -1.15279     0.19273     2.26715
