 24
-909.975221555981
O     -1.90218    -0.34458    -0.01895
H     -1.90426    -0.30384    -0.98914
O     -3.20901     0.11824     0.34469
H     -3.07102     0.19032     1.29932
O      0.80783    -1.05992    -2.20963
H      0.66074    -1.44511    -1.32219
O     -0.37061    -0.25691    -2.34938
H     -0.03649     0.61399    -2.05401
O      2.89152     0.53854    -1.65819
H      2.21665    -0.06642    -2.03453
O      3.02501    -0.01079    -0.34871
H      3.77608    -0.60362    -0.44301
O      0.84157    -0.61936     1.08645
H      1.61403    -0.36875     0.54536
O      0.29559    -1.70760     0.32784
H     -0.63959    -1.44327     0.33965
O     -1.18610    -0.73577     2.93698
H     -0.39614    -0.49422     2.42933
O     -1.81790     0.54386     3.07142
H     -1.95504     0.58681     4.02312
O      0.42931     2.06414    -1.36271
H      1.38338     1.97040    -1.22842
O     -0.05101     2.20723    -0.02333
H     -0.69184     1.48206     0.04333
