 28
-1061.6425552701087
O      2.44791    -0.38519    -2.03534
H      1.62205    -0.89288    -2.13884
O      3.34880    -1.35648    -1.51550
H      3.13848    -1.33889    -0.57297
O      1.40616    -1.70701     0.86720
H      0.91601    -2.29127     0.25165
O      0.82846    -2.02414     2.13217
H      0.21687    -1.28612     2.26234
O     -0.46127     0.72276     2.73664
H      0.23973     1.11592     2.19377
O     -1.47306     0.46396     1.76197
H     -0.19824     1.10533    -0.77132
O     -0.14159    -2.71628    -1.08114
H     -0.35099    -3.45113    -1.66298
O      0.04484    -1.64715    -2.00854
H     -0.68351    -1.03563    -1.73357
O     -2.53153     2.77950     0.53550
H     -2.27065     2.37252    -0.30781
O     -3.95424     2.63312     0.50426
H     -4.23314     3.54961     0.43038
O     -1.68137    -0.06416    -0.83810
H     -1.58011    -0.03441     0.13626
O     -1.05274     1.14833    -1.25503
H     -1.99131     1.29055     1.74430
O      2.37694     1.37041    -0.03097
H      2.55308     0.92399    -0.88358
O      1.09298     0.82579     0.26371
H      1.32913    -0.09771     0.50303
