 32
-1213.2998679646166
O      0.88962    -0.40646     2.02973
H      1.21505    -1.31212     2.08567
O      2.10018     0.32326     1.78633
H      1.74217     1.21613     1.65356
O      1.67863    -1.82200    -2.02871
H      0.82478    -2.23611    -2.20800
O      1.56921    -1.49251    -0.63323
H      1.86762    -0.55263    -0.65561
O     -1.16839    -2.32430    -2.66764
H     -1.43827    -2.31064    -1.73508
O     -1.40014    -0.95934    -3.02929
H     -2.17085    -1.02031    -3.60691
O     -1.55443     1.28730    -0.04360
H     -1.32367     0.40599     0.29965
O     -0.82363     1.38604    -1.26581
H     -0.93980     0.50836    -1.66194
O      1.99370     1.07362    -1.12549
H      1.26994     1.62429    -0.77902
O      1.91603     1.30123    -2.53469
H      1.70362     0.40947    -2.84490
O     -1.42137     0.32141     3.17731
H     -0.59031     0.08652     2.72153
O     -2.36830    -0.23712     2.25764
H     -2.98766     0.49247     2.14547
O     -1.16069    -2.48984     1.23312
H     -1.63366    -1.84899     1.78722
O     -0.97204    -1.67963     0.07460
H      0.01172    -1.67517    -0.03730
O      1.04921     2.75098     1.12130
H      1.38037     3.65399     1.13542
O     -0.22899     2.88400     1.74742
H     -0.79566     2.44562     1.08547
