 32
-1213.3090444485729
O      2.27566    -1.72889     1.18190
H      2.01364    -1.77291     0.23651
O      1.56851    -2.86206     1.69354
H      2.20080    -3.16358     2.35038
O      1.53798    -1.23727    -1.29637
H      0.90043    -0.98911    -1.99065
O      2.78472    -0.75672    -1.78378
H      2.93783    -0.01869    -1.17832
O     -3.36800    -1.39090     0.33413
H     -3.64504    -2.03858     0.98906
O     -2.06804    -1.84003    -0.02662
H     -1.50271    -1.46858     0.69336
O     -0.01092     2.79876    -0.50217
H     -0.91572     2.51218    -0.31142
O      0.53339     1.62710    -1.11800
H      1.24611     1.38967    -0.48642
O      2.52138     1.13062     0.59643
H      2.51678     0.30868     1.11825
O      2.49769     2.15408     1.58621
H      1.54622     2.31778     1.66036
O     -1.05644    -0.81210    -2.38088
H     -1.48930    -1.16589    -1.58713
O     -1.49620     0.54864    -2.38686
H     -0.67924     0.99163    -2.06431
O     -0.13225     0.49408     1.60657
H     -0.94111     0.80708     1.15519
O     -0.53153    -0.85780     1.87849
H      0.32185    -1.29719     2.01686
O     -3.00329     1.89651    -0.55782
H     -2.64224     1.44140    -1.34387
O     -2.47494     1.08703     0.48680
H     -3.00225     0.26218     0.41835
