 40
-1516.6412882237441
O      2.16783     2.76771    -0.05551
H      2.93880     2.24013     0.20022
O      1.15614     2.05107     0.65102
H      0.97303     1.31161     0.03345
O      3.26650    -0.29147    -0.72692
H      4.02721    -0.87657    -0.79574
O      3.53757     0.43829     0.46464
H      2.99531    -0.06425     1.10742
O     -1.69514     3.28512     1.42428
H     -1.57964     3.92011     2.13718
O     -0.81588     3.78097     0.41494
H     -0.01107     3.22849     0.57205
O     -1.40599     0.62384     1.40973
H     -1.54408     1.59145     1.46624
O     -2.56693     0.23060     0.67059
H     -2.41563    -0.72694     0.54503
O     -2.67357     1.30679    -1.79762
H     -2.68683     0.93748    -0.88784
O     -1.43044     2.02402    -1.82904
H     -1.57558     2.77744    -1.22952
O      0.31270     0.18251    -1.07752
H     -0.35308     0.81340    -1.46027
O      1.07899    -0.18460    -2.22841
H      1.96178    -0.13527    -1.81638
O      1.13752    -0.43710     2.86281
H      0.36616    -0.21071     2.32055
O      1.94445    -1.14188     1.93031
H      1.74502    -2.07995     2.15103
O     -1.89984    -2.19269    -0.23021
H     -1.73410    -2.10484    -1.19249
O     -0.59175    -1.97237     0.30376
H     -0.26282    -1.20040    -0.20559
O      0.49441    -4.19070     1.42191
H      0.09216    -3.38206     1.04919
O      1.21054    -3.65656     2.54083
H      0.62578    -3.85046     3.28069
O     -1.84769    -1.04745    -3.82076
H     -2.31417    -0.32644    -3.37584
O     -1.14166    -1.64084    -2.73468
H     -0.26075    -1.22040    -2.78027
