 32
-1213.305190181989
O      3.66115     0.53322    -0.03840
H      3.14284    -0.21963     0.31372
O      3.61309     1.49446     1.00958
H      2.65968     1.63990     1.09966
O     -0.47646    -3.08141    -0.51203
H      0.41504    -2.67315    -0.60161
O     -1.14672    -2.57745    -1.66544
H     -0.82602    -3.14650    -2.37209
O     -0.81474    -0.18784    -0.69069
H     -1.05090    -1.00514    -1.17730
O     -1.25305     0.85762    -1.57643
H     -2.00800     1.17146    -1.04800
O      0.64468     1.97791     0.84515
H      0.80376     2.21185    -0.08250
O     -0.66636     2.49576     1.08385
H     -1.17810     1.67793     1.17576
O      1.36732     0.53811    -2.27385
H      0.42581     0.77250    -2.19624
O      2.00001     1.71589    -1.74385
H      2.74076     1.30821    -1.23902
O      1.66615    -1.12265     0.51698
H      0.83353    -0.61536     0.47176
O      1.76629    -1.64011    -0.80564
H      1.69213    -0.83210    -1.37033
O     -2.04327    -1.61489     1.50940
H     -1.54849    -2.25750     0.97346
O     -1.03261    -1.10978     2.37365
H     -1.34590    -1.40080     3.23483
O     -4.16789     1.19059     1.37468
H     -3.83205     2.03009     1.70002
O     -3.06684     0.75536     0.58175
H     -2.86428    -0.12090     0.96152
