 20
-758.3025734520817
O      2.15955    -0.02317     1.29339
H      2.12979    -0.88416     0.84497
O      1.48671    -0.28240     2.52899
H      0.66266     0.21012     2.41570
O      2.55242    -1.92973    -0.86310
H      2.66322    -2.87633    -0.74365
O      1.12228    -1.84214    -0.86306
H      1.00475    -0.93649    -1.20838
O     -1.65744     0.28551     0.91330
H     -0.85957     0.71863     0.53368
O     -1.44973     0.55235     2.30288
H     -1.77903    -0.26469     2.68685
O      0.50292     1.38724    -0.20590
H      1.27814     1.00133     0.25782
O      0.54510     0.70158    -1.46631
H     -0.38858     0.78294    -1.74219
O     -2.03812     0.59148    -2.15029
H     -2.51329    -0.03929    -2.70183
O     -3.08613     1.28282    -1.47164
H     -2.95094     0.95357    -0.56855
