 40
-1516.6431262032345
O      2.89640     0.80609     0.47414
H      3.34129     1.63595     0.24612
O      2.12931     1.21136     1.61742
H      1.56144     0.41766     1.70197
O     -0.65429    -1.23237     2.20967
H     -0.88997    -0.36419     2.59954
O      0.50650    -0.86150     1.46706
H      0.45223    -1.41944     0.65136
O      2.95001     3.07627    -2.02914
H      2.86729     3.91737    -2.48884
O      2.76634     3.43508    -0.66511
H      1.79721     3.29821    -0.55752
O      0.11345     2.99145     1.23260
H      0.90695     2.47314     1.46649
O      0.19382     2.93190    -0.19640
H     -0.50626     2.27158    -0.42213
O     -1.53030     0.23767    -1.65344
H     -0.55134     0.17191    -1.59684
O     -1.77956     1.14502    -0.56693
H     -2.22908     0.53388     0.04709
O      1.83987     0.65982    -2.54345
H      2.11792     1.56251    -2.30372
O      1.08026     0.30450    -1.39423
H      1.74430     0.33416    -0.67004
O     -2.71262    -1.05684     0.52640
H     -1.94951    -1.36755     1.05946
O     -2.66859    -1.89906    -0.62599
H     -2.23737    -1.29179    -1.26019
O     -0.81646    -4.66181    -1.02593
H     -0.47888    -5.54656    -0.86205
O     -1.57706    -4.40161     0.15826
H     -2.18501    -3.73975    -0.19614
O      1.67795    -2.45262    -1.35061
H      1.66135    -1.70874    -1.96410
O      0.36714    -2.30064    -0.77361
H     -0.02710    -3.18912    -0.91434
O     -2.99219     1.19716     2.64774
H     -3.14110     0.35805     2.19339
O     -1.57795     1.19318     2.78479
H     -1.29890     1.88695     2.16657
