 36
-1364.9766513569969
O      0.31778     2.54039     1.84945
H     -0.63220     2.43946     1.68098
O      0.83341     2.95640     0.58276
H      1.03885     2.09441     0.16651
O      1.23360     0.10614     2.41330
H      0.94770     1.03697     2.25423
O      0.16852    -0.39451     3.22856
H     -0.07050    -1.20814     2.74496
O     -0.13177    -1.32717    -2.22299
H     -0.26574    -0.68082    -2.93759
O     -1.48500    -1.59716    -1.83204
H     -1.29684    -2.02663    -0.97517
O     -2.60372     0.83670    -1.49055
H     -2.28741    -0.07553    -1.65527
O     -1.45489     1.43882    -0.88940
H     -1.06260     1.94030    -1.62311
O     -0.12036     0.71794    -3.90985
H      0.25278     0.92940    -4.77116
O      0.50586     1.66946    -3.05193
H      1.20634     1.13215    -2.63436
O      1.15147     0.54028    -0.51235
H      0.31044     0.13912    -0.81171
O      2.08917     0.10147    -1.48522
H      2.44982    -0.66336    -1.00924
O     -2.48108     0.06535     1.38189
H     -2.58391     0.64337     0.60976
O     -2.05380     0.98396     2.39807
H     -1.32667     0.48324     2.81492
O      2.13288    -2.12745     1.24784
H      2.05857    -1.26031     1.70219
O      3.08764    -1.84331     0.22861
H      3.78430    -2.47098     0.43537
O     -1.05349    -2.17234     1.65554
H     -1.67473    -1.44892     1.42143
O     -0.41877    -2.42834     0.40425
H      0.52914    -2.41636     0.63561
