 32
-1213.306383284763
O     -0.39663    -1.28760     1.66841
H      0.42844    -0.91692     1.26939
O     -0.78139    -2.31772     0.75096
H     -1.63756    -2.57552     1.10480
O     -0.30419    -1.56804    -1.77581
H     -0.44401    -1.83693    -0.84563
O      1.07757    -1.22286    -1.78281
H      1.05969    -0.25381    -1.87145
O     -1.73125     0.60729    -2.24652
H     -1.29506    -0.27436    -2.22640
O     -2.39599     0.62995    -0.97775
H     -1.67831     0.95080    -0.39129
O     -0.51351     1.64080     0.58788
H      0.01746     2.17923    -0.02289
O     -1.19897     2.61240     1.39262
H     -1.86291     2.00991     1.77040
O      0.28394     2.37697    -2.07339
H     -0.50107     1.81984    -2.27239
O      1.32751     1.42500    -2.24687
H      1.76653     1.75126    -3.03755
O      3.88986    -1.19214     0.02857
H      4.72287    -1.54209     0.35587
O      3.03005    -2.32416     0.13138
H      2.45386    -2.15621    -0.62776
O      1.69836     0.07537     0.84606
H      2.62471    -0.22264     0.75058
O      1.68622     0.72388     2.12563
H      0.89922     1.26911     1.99862
O     -2.42547     0.32156     2.29397
H     -1.66275    -0.27896     2.17354
O     -3.48750    -0.44217     1.72390
H     -3.49064    -0.11897     0.80984
