 24
-909.9735317496684
O     -1.53054    -0.12393    -0.59381
H     -1.80639    -0.80752     0.05608
O     -1.65962     1.06635     0.19650
H     -0.83354     1.52364    -0.01465
O     -0.11003    -0.06014    -3.21668
H     -0.59624    -0.13798    -2.38351
O      1.23118     0.12435    -2.76323
H      1.22971     1.06816    -2.53313
O      1.20229    -1.21659     0.56119
H      0.91395    -0.58584     1.24748
O      2.12711    -0.42190    -0.18533
H      1.86725    -0.62684    -1.10095
O     -1.99650    -1.94508     1.26733
H     -1.73866    -1.59317     2.13431
O     -1.07360    -3.00749     1.04187
H     -0.33249    -2.53978     0.62708
O     -1.13661     0.35033     2.71286
H     -1.50063     0.71426     1.88054
O      0.25790     0.42595     2.41781
H      0.57607     1.04223     3.08414
O      1.15404     2.06502    -0.06131
H      1.59740     1.18855    -0.10222
O      1.20729     2.49510    -1.42210
H      1.93904     3.11865    -1.40263
