 32
-1213.3055018528025
O      1.09742    -1.13361     0.71113
H      1.05552    -0.79642    -0.21365
O     -0.28249    -1.26275     1.06692
H     -0.65246    -1.78289     0.33323
O      0.23139    -3.29376    -1.00714
H      0.53209    -3.90410    -0.32768
O     -0.60993    -4.10816    -1.83080
H     -1.35053    -3.49134    -1.92593
O     -2.45114    -1.97775    -2.08860
H     -3.37529    -2.16075    -2.28109
O     -2.53382    -1.52626    -0.73442
H     -2.26976    -0.58431    -0.81708
O     -0.67361     3.39784     1.53898
H     -1.14429     2.57242     1.29862
O     -0.49360     3.17336     2.93776
H     -0.44029     4.07518     3.26457
O      1.95537     1.85348    -0.52679
H      1.90909     1.75246     0.45463
O      0.70943     2.49438    -0.82866
H      0.60652     3.11409    -0.09066
O      1.06493    -0.42721    -1.83636
H      1.77039     0.23675    -1.88227
O      1.65200    -1.55660    -2.49781
H      1.16945    -2.26245    -2.03263
O      1.89950     0.54623     2.68594
H      1.67354    -0.05977     1.95616
O      1.66589     1.81296     2.06943
H      0.88169     2.15356     2.53528
O     -1.44248     0.90580    -0.59232
H     -0.62976     1.42100    -0.77621
O     -1.54796     1.01568     0.82911
H     -1.04882     0.21877     1.11500
