 32
-1213.3097950897748
O     -0.90449    -3.49893    -0.39392
H     -1.13891    -4.34597    -0.78456
O     -0.79103    -3.81230     0.99140
H     -0.84034    -2.91827     1.36151
O      1.39555    -1.35549     0.39239
H      2.09754    -0.68603     0.23489
O      0.90397    -1.59876    -0.93303
H      0.40168    -2.42329    -0.78730
O     -2.58009    -0.25657    -1.10664
H     -2.49893    -0.23621    -0.13257
O     -3.05894    -1.56704    -1.36570
H     -2.41671    -2.09819    -0.87871
O     -0.04873     0.80840    -1.15178
H      0.28204    -0.12658    -1.18716
O     -0.68093     0.98324    -2.41707
H     -1.53541     0.55783    -2.20636
O      2.09084     2.62600    -1.45476
H      1.25543     2.23315    -1.74515
O      1.64295     3.54549    -0.44068
H      2.22550     3.27325     0.28369
O      2.78279     1.62584     1.18244
H      1.89044     1.32543     1.43069
O      3.09628     0.71683     0.11545
H      2.92910     1.29519    -0.65304
O     -0.41622     2.35971     1.56296
H      0.00220     2.84238     0.83000
O      0.15332     1.06905     1.39121
H     -0.02333     0.94987     0.42844
O     -2.30955    -0.43342     1.53541
H     -2.55121     0.22426     2.19759
O     -1.18878    -1.10846     2.10506
H     -0.49313    -0.42526     2.01192
