 32
-1213.314409111387
O      2.56746    -0.09588     0.63962
H      2.79011     0.80995     0.38350
O      1.45548    -0.30680    -0.23292
H      0.75253    -0.52061     0.41963
O     -1.70802    -3.32383    -0.03677
H     -2.38025    -3.97254    -0.26235
O     -2.48410    -2.15199     0.16341
H     -2.27598    -1.61270    -0.63264
O     -1.96515    -0.34678    -1.73167
H     -2.00205     0.53551    -1.30788
O     -0.67560    -0.22247    -2.35456
H     -0.31385    -1.13114    -2.22820
O      0.33760     1.66123     2.40596
H      0.89039     2.19884     1.81059
O     -0.97171     1.97669     1.90191
H     -1.40762     1.13064     2.11061
O      1.65090     3.09347     0.52695
H      1.10363     2.87828    -0.25915
O      2.91407     2.59209     0.09845
H      3.51136     3.24640     0.46988
O      1.51360    -2.71139    -1.34472
H      1.64287    -1.79066    -1.04211
O      0.17015    -2.65529    -1.82947
H     -0.33669    -3.00482    -1.07576
O     -1.29740     2.00785    -0.77030
H     -1.10648     2.08368     0.18659
O      0.00608     2.15158    -1.35066
H      0.09583     1.28206    -1.78726
O     -0.08869    -0.97842     1.84697
H      0.36950    -0.39143     2.46399
O     -1.44955    -0.62904     2.13012
H     -1.90573    -1.26236     1.54776
