 32
-1213.3169294886288
O      1.70213    -2.21174     3.13555
H      2.41365    -1.91867     3.71348
O      2.11922    -1.75090     1.85633
H      1.80113    -0.81538     1.84276
O      0.98476     1.98313    -3.81672
H      1.39403     1.43760    -3.11720
O     -0.27466     1.31045    -3.93256
H     -0.46867     1.42545    -4.86691
O      0.26575    -2.56791     0.02196
H      1.08486    -2.56188     0.54192
O      0.32287    -1.24225    -0.51185
H     -0.62694    -0.98455    -0.54037
O     -1.73063     1.88398    -1.72439
H     -1.17972     1.81738    -2.52842
O     -0.84602     2.49240    -0.78787
H     -1.02944     1.98162     0.01761
O      1.81576     0.70791    -1.60812
H      1.30525    -0.00510    -1.17657
O      1.73105     1.77908    -0.66986
H      0.86874     2.18372    -0.88875
O     -0.79860    -1.32262     2.85942
H      0.01750    -1.80815     3.08956
O     -1.51331    -2.25941     2.05158
H     -0.90532    -2.41883     1.30289
O     -2.86989    -0.14555     0.57878
H     -2.80394    -0.98434     1.05652
O     -2.25390    -0.49605    -0.66719
H     -2.30980     0.36129    -1.13433
O     -0.09038     0.95217     1.60421
H     -0.43211     0.17315     2.08612
O      1.32624     0.76028     1.72596
H      1.62927     1.19201     0.89367
