 36
-1364.976615342683
O      1.33281     1.76155     2.23590
H      0.64706     1.12884     2.50891
O      2.42878     0.90915     1.90809
H      2.41915     0.92861     0.92731
O     -0.06977    -3.54210     0.14609
H     -0.61968    -4.21485     0.55863
O     -1.01888    -2.68717    -0.48527
H     -1.29747    -2.09536     0.24925
O     -1.82573    -1.14747     1.55552
H     -2.49164    -0.52590     1.22575
O     -0.77589    -0.26508     1.97768
H      0.00806    -0.71888     1.58947
O      0.57386    -1.66310    -2.77359
H     -0.02039    -2.07916    -2.13318
O      1.74398    -1.52216    -1.97129
H      2.42942    -1.91867    -2.51925
O     -3.50599     0.36233    -0.34292
H     -2.63077     0.39080    -0.79898
O     -3.57759     1.65278     0.26044
H     -4.19225     2.11394    -0.31882
O     -1.08710     3.32207     0.53562
H     -1.79871     2.66634     0.56516
O     -0.01337     2.52255     0.05000
H      0.56873     2.44503     0.83802
O      2.18811     0.80799    -0.72230
H      1.96177    -0.06037    -1.11455
O      2.10185     1.68710    -1.83614
H      1.39503     2.27035    -1.52787
O     -0.99012     0.36557    -1.17982
H     -0.50830     1.08216    -0.69679
O     -0.88358     0.81595    -2.53144
H     -0.25059     0.16350    -2.86049
O      1.88029    -1.68842     2.26002
H      2.26869    -0.80322     2.37625
O      1.31151    -1.46682     0.97071
H      1.01062    -2.35584     0.68561
