 36
-1364.9796366863823
O      2.56003     2.87344     0.25078
H      2.65560     3.69747     0.73621
O      2.82322     1.91527     1.27691
H      1.93976     1.49560     1.36043
O     -2.31427     1.40120     0.75578
H     -1.72723     0.90219     1.36143
O     -2.96436     0.36086     0.02025
H     -2.89502     0.68632    -0.89571
O      0.10766    -2.43158     1.91015
H     -0.68612    -2.52703     1.33435
O      1.17498    -2.73201     1.01329
H      1.89266    -2.16126     1.34773
O     -1.07725     3.10182    -0.92708
H     -1.44061     2.50552    -0.24318
O      0.07097     2.38893    -1.37860
H      0.77763     2.71857    -0.79903
O      0.31186    -0.59997    -1.14690
H     -0.33087    -0.27312    -1.80834
O      0.22954    -2.01034    -1.34790
H      0.68780    -2.33044    -0.54000
O     -0.36161     0.21278     2.12401
H     -0.10708    -0.73500     2.11794
O      0.44794     0.76087     1.09125
H      0.28740     0.19661     0.29530
O     -1.41934     0.26024    -2.98666
H     -1.71713     0.03711    -3.87484
O     -2.42612     1.15655    -2.52592
H     -1.91451     1.97573    -2.41663
O      3.79797    -0.72066     0.44232
H      3.70990     0.24331     0.52589
O      3.25359    -1.13515     1.69492
H      4.03219    -1.42531     2.18273
O     -2.08396    -2.10670     0.48080
H     -2.40602    -1.19710     0.30021
O     -2.29213    -2.76711    -0.76884
H     -1.40671    -2.66474    -1.15556
