 36
-1364.9827640150631
O      2.53237     1.84009    -0.13757
H      2.82243     0.97400     0.21990
O      1.43842     2.11419     0.75628
H      0.84577     2.60606     0.15263
O     -2.30803    -1.80917     0.56142
H     -2.38535    -0.89595     0.19676
O     -3.09708    -2.56413    -0.35514
H     -3.56805    -3.13182     0.25940
O     -0.15451     0.02658     1.34277
H      0.48778     0.71658     1.05229
O      0.61356    -0.76587     2.24578
H      0.38084    -1.66035     1.93087
O      1.34295    -0.38509    -1.86392
H      1.15786     0.52233    -2.17061
O      0.06311    -1.00615    -1.99759
H      0.11493    -1.76926    -1.38463
O     -2.43544     0.65300    -0.45359
H     -2.24307     1.45602     0.07632
O     -1.72364     0.92141    -1.66530
H     -1.23076     0.08570    -1.81414
O     -1.99176     1.69203     2.27640
H     -1.33671     0.97842     2.15008
O     -1.60694     2.53372     1.18509
H     -1.71512     3.41504     1.55769
O      0.99824     2.33013    -2.38854
H      1.83295     2.53028    -1.94415
O      0.08132     2.83783    -1.40978
H     -0.66794     2.21095    -1.52816
O      2.72096    -1.61385     0.02757
H      2.29878    -1.11577    -0.69995
O      2.95064    -0.56908     0.96971
H      2.19038    -0.68466     1.57661
O      0.73762    -3.14832     0.92988
H      1.58182    -2.80728     0.57005
O     -0.09533    -3.03701    -0.22977
H     -0.95864    -2.76517     0.15356
