 40
-1516.6407370577429
O      3.67069     0.01426     1.64024
H      2.89741    -0.10815     1.05370
O      2.98493     0.29702     2.87145
H      3.71805     0.31917     3.49384
O      1.28517    -1.60737    -0.25374
H      0.91357    -1.46733    -1.15399
O      1.45206    -0.23973     0.13022
H      0.59269    -0.05097     0.57601
O      0.40043     4.72005    -1.47743
H      0.16759     5.57511    -1.85254
O     -0.06447     4.86487    -0.13219
H      0.68612     4.48481     0.34560
O     -1.23978     1.53690    -2.13560
H     -2.02253     1.22766    -1.63879
O     -0.51663     2.15889    -1.06689
H     -0.51167     3.09336    -1.34556
O     -0.99015    -0.26625     2.67837
H     -0.75634    -1.15970     2.35719
O     -0.65268     0.51144     1.52911
H     -0.15356     1.25642     1.92708
O      1.27835     2.25820     2.14537
H      2.00717     1.64837     2.39001
O      1.71922     2.76202     0.88673
H      1.17994     2.25130     0.25903
O     -2.71924    -1.07941    -0.47018
H     -2.19317    -1.18711    -1.29284
O     -2.86868     0.33606    -0.37214
H     -2.35204     0.52022     0.42660
O     -0.38932    -2.63258     1.53987
H      0.23750    -2.41358     0.81832
O     -1.54199    -3.11893     0.85963
H     -1.98351    -2.29839     0.56451
O     -1.10539    -4.47838    -1.42452
H     -1.20818    -4.08622    -0.53562
O      0.10567    -3.84451    -1.83325
H      0.64075    -4.58761    -2.12576
O     -1.14440    -1.64238    -2.56586
H     -0.74872    -2.53098    -2.44571
O      0.03859    -0.83595    -2.43431
H     -0.32117     0.07490    -2.46696
