 28
-1061.6519815758065
O     -4.43033    -0.27299     0.25679
H     -5.17294    -0.85586     0.43660
O     -3.34169    -1.18673     0.34142
H     -2.86324    -0.85624     1.13315
O     -1.37240     1.10358     1.55769
H     -1.35998     0.97042     0.58792
O     -1.50458    -0.23046     2.05180
H     -0.63417    -0.61595     1.81972
O      0.80103    -1.28828     1.23860
H      1.64862    -0.91505     0.93041
O      0.47466    -2.15270     0.14271
H      3.09410    -0.01811    -0.55110
O      1.01127     2.56836     0.40870
H      1.12110     3.47529     0.71454
O      1.19666     1.81627     1.60818
H      0.26122     1.57047     1.79400
O     -1.24249    -0.70700    -1.32897
H     -2.11183    -0.81792    -0.89909
O     -0.97180     0.67207    -1.04397
H     -0.08661     0.76706    -1.45732
O      2.55782    -1.59850    -1.38049
H      1.81502    -2.07588    -0.96752
O      3.04437    -0.92808    -0.19984
H     -0.19993    -1.62707    -0.33243
O      2.45349     1.29971    -1.45153
H      1.91698     1.81367    -0.81741
O      1.42909     0.65743    -2.22939
H      1.79030    -0.24971    -2.24837
