 28
-1061.643361366004
O      0.20216    -2.84984    -0.12314
H      1.11811    -2.98491    -0.46810
O      0.40252    -2.97380     1.27686
H     -0.20688    -3.68535     1.48520
O     -0.82895    -0.82855    -1.49427
H     -0.54978    -1.59604    -0.96294
O     -1.64272    -0.13704    -0.54527
H     -1.66605     0.77421    -0.92010
O     -0.03022    -0.55465     2.46045
H      0.19455    -1.34856     1.94871
O      0.01676     0.44880     1.45799
H      3.56408    -2.80236    -0.84898
O     -2.60320     2.34569     2.29681
H     -2.77282     2.90848     3.05789
O     -1.45809     2.98623     1.73085
H     -0.77913     2.30469     1.85629
O     -1.64241     2.46043    -1.06848
H     -1.90454     2.86401    -0.22622
O     -0.37743     3.09137    -1.29274
H      0.21739     2.32675    -1.35857
O      2.33429    -1.92175    -2.00370
H      2.23680    -1.13944    -1.41881
O      2.64233    -2.95711    -1.07465
H     -0.74976     0.21027     0.89561
O      1.83989     0.14024    -0.42370
H      1.20788     0.26490     0.32364
O      1.21828     0.82833    -1.50936
H      0.49849     0.19505    -1.70894
