 36
-1364.9718502446985
O      2.65434    -0.34626    -1.06643
H      2.96353    -1.21352    -0.74579
O      2.08101    -0.72115    -2.32514
H      1.52041     0.04456    -2.50187
O     -3.35990    -1.29860    -0.08513
H     -2.68166    -1.83246    -0.52416
O     -2.56478    -0.16953     0.29219
H     -2.54824    -0.21645     1.26350
O      2.69462    -4.00045    -0.40138
H      1.76963    -3.73326    -0.50247
O      3.28904    -2.76441    -0.01710
H      3.42286    -2.86989     0.93320
O      0.28948    -2.23556    -1.08774
H      0.95453    -1.83464    -1.69662
O     -0.94380    -1.83023    -1.67488
H     -0.84524    -0.85830    -1.63044
O     -0.19136     0.65414    -1.44490
H      0.19927     0.90303    -0.58366
O     -0.28346     1.87772    -2.17723
H     -1.20389     2.12049    -1.94362
O     -2.63755     2.20277    -0.92060
H     -2.73794     1.29283    -0.56953
O     -2.33483     2.94424     0.26251
H     -1.39611     3.13816     0.12916
O     -1.18770     1.82644     2.72879
H     -1.82847     2.09583     2.05264
O     -1.44665     0.42743     2.86793
H     -0.70796     0.03643     2.35758
O      0.65850     2.61998     0.45298
H      1.41104     2.98562    -0.01875
O      1.24922     2.08488     1.63854
H      0.45580     2.06537     2.20820
O      1.57903    -0.80695     1.73621
H      1.92787     0.08541     1.58699
O      0.29350    -0.66564     1.13239
H      0.30853    -1.30544     0.37878
