 32
-1213.3066476224778
O      1.09651    -0.61406     2.19052
H      1.89529    -0.11073     1.92509
O      0.76241     0.00766     3.42436
H      0.71778    -0.75454     4.00777
O      2.72477    -2.10080    -0.01604
H      3.02067    -2.87905    -0.49884
O      2.33594    -1.26108    -1.10254
H      2.81740    -0.44300    -0.89888
O     -3.63152    -0.85638    -0.32837
H     -2.79487    -1.16392     0.05324
O     -3.32558     0.50271    -0.63856
H     -2.81279     0.40769    -1.46278
O      0.32744     1.12721    -0.17978
H     -0.48587     1.21682     0.39680
O      0.16918     2.16684    -1.14991
H     -0.11599     1.63248    -1.90739
O      2.91253     1.29878     0.06894
H      1.92555     1.35670     0.06373
O      3.17476     0.89330     1.41237
H      3.43245     1.71808     1.83733
O     -0.60222     0.58922    -3.26679
H     -0.99237     0.93605    -4.07212
O     -1.70781    -0.12260    -2.72562
H     -1.23891    -0.85760    -2.27171
O     -0.31909    -1.84450    -1.25023
H      0.62129    -1.57112    -1.21656
O     -0.76481    -1.75054     0.10274
H     -0.01119    -1.34475     0.56260
O     -1.74280     0.25909     2.26944
H     -0.85557     0.37232     2.63718
O     -1.79605     1.37232     1.36352
H     -2.53836     1.10856     0.77206
