 20
-758.3033672369617
O     -0.04261    -1.16953     0.06981
H     -0.21377    -1.27203    -0.88251
O      0.50182    -2.44780     0.44810
H      1.38581    -2.15659     0.71278
O      2.48310    -0.88662     1.94700
H      2.42817    -1.26341     2.83143
O      1.63984     0.26308     2.07725
H      0.86731    -0.01799     1.55926
O      1.86920     2.24694    -0.21080
H      2.05288     1.77550     0.61372
O      0.48598     1.93478    -0.38164
H      0.50567     1.39888    -1.18867
O     -0.38987     0.13472    -2.51442
H     -0.55772     0.51724    -3.38113
O     -1.60999    -0.58075    -2.28121
H     -2.01225    -0.00591    -1.59636
O     -2.20511     0.87732    -0.13337
H     -1.37198     1.28567     0.15346
O     -2.51192    -0.01145     0.93679
H     -1.99987    -0.79599     0.69190
