 40
-1516.6472138646225
O      1.00713     3.13535     0.16491
H      1.84195     2.65752    -0.01991
O      0.49320     2.42286     1.28678
H      0.25750     1.57284     0.88800
O      2.61415     0.74057    -1.58941
H      3.43560     0.58906    -2.06876
O      3.03616     1.41572    -0.41171
H      2.93941     0.71375     0.27244
O     -2.32983     1.93993     0.26901
H     -1.93746     2.46967    -0.46136
O     -2.18749     2.81945     1.38395
H     -1.21786     2.87458     1.46665
O     -1.31242     0.02871     2.50729
H     -1.73702     0.74940     2.01156
O     -0.31262    -0.36228     1.57262
H     -0.76245    -1.05723     1.03166
O     -0.53485     2.08561    -2.54218
H     -1.38124     1.61993    -2.68452
O     -0.96715     3.14330    -1.67975
H     -0.15692     3.31918    -1.16498
O      0.27711    -0.48903    -1.31460
H      0.99269     0.12531    -1.57989
O      0.92938    -1.75506    -1.40557
H      1.55739    -1.69080    -0.65519
O      2.30867    -0.37548     1.45540
H      1.34593    -0.29562     1.62598
O      2.36751    -1.66156     0.83179
H      1.87021    -2.21674     1.47998
O     -1.47015    -2.23522     0.08258
H     -1.99387    -2.01756    -0.70852
O     -0.79107    -3.43372    -0.29853
H     -0.08517    -3.04112    -0.85118
O      0.44820    -4.27815     2.01563
H     -0.02525    -4.01667     1.20355
O      0.87841    -3.01282     2.51666
H      0.15620    -2.73058     3.09079
O     -2.71372     0.52903    -2.35912
H     -2.92013     0.72947    -1.43313
O     -2.15240    -0.77662    -2.28802
H     -1.21091    -0.58769    -2.07499
