 24
-909.974014598721
O     -1.89959    -1.08504    -1.76459
H     -2.15334    -0.23160    -1.38883
O     -2.78112    -1.94235    -1.03808
H     -2.93852    -2.63618    -1.68388
O     -0.88009    -1.72427     0.84612
H     -1.56241    -1.99090     0.20577
O      0.28611    -2.31425     0.25963
H      0.52319    -1.62249    -0.39171
O      0.93736    -0.05322    -1.01131
H      0.09710     0.44104    -1.07038
O      1.49951     0.66059     0.10623
H      2.02881    -0.04009     0.55106
O     -1.97444     0.96180     0.45834
H     -1.37893     0.26946     0.78537
O     -1.24791     1.42648    -0.67973
H     -0.93138     2.30159    -0.37142
O      2.00009    -1.76637     2.26960
H      1.35977    -2.08426     1.60010
O      2.96823    -1.15148     1.40270
H      3.68995    -0.98595     2.01581
O      0.03443     3.57158     0.17675
H      0.01387     4.52468     0.05184
O      1.08435     3.18794    -0.71913
H      1.33609     2.33326    -0.32245
