 16
-606.6360881322938
O     -0.44221    -0.26563     0.85574
H     -0.18292    -0.41617     1.78205
O      0.73266     0.40672     0.38291
H      0.35917     0.94324    -0.34001
O      0.60168    -0.19241     3.36381
H      0.23320     0.43115     3.99828
O      1.89187     0.38103     3.09939
H      1.78298     0.61836     2.16702
O     -0.05902     1.74133    -1.80720
H      0.60422     2.19960    -2.33181
O     -0.62181     0.84891    -2.77495
H     -0.34744    -0.01253    -2.40224
O     -0.31064    -1.51088    -1.52717
H     -0.34460    -1.28648    -0.57420
O     -1.53442    -2.21768    -1.73010
H     -2.14239    -1.50821    -1.95679
