 36
-1364.9747801928888
O     -0.17978     3.30906    -0.55741
H     -0.88613     2.78271    -0.98103
O      0.77783     2.29637    -0.28614
H      0.54398     2.00699     0.61102
O     -0.81413    -2.02085    -1.42999
H     -0.76505    -2.97142    -1.17615
O     -2.20882    -1.78839    -1.64614
H     -2.29567    -0.89795    -1.25054
O      0.37266     0.31503     3.08703
H      0.24325    -0.30197     2.33486
O      1.20882     1.29426     2.45560
H      2.02614     1.22150     2.95878
O      0.16104    -0.88527     0.72478
H     -0.28350    -1.13464    -0.11336
O      1.41619    -1.54253     0.48306
H      2.00684    -0.75659     0.49490
O     -2.03615     2.18016     1.56917
H     -2.48644     3.01381     1.74949
O     -2.31727     1.39374     2.72449
H     -1.41971     1.27236     3.06537
O     -2.37645     0.70036    -0.63461
H     -2.26428     1.24135     0.17231
O     -2.03139     1.63225    -1.66138
H     -1.41085     1.09614    -2.19979
O      3.05464     0.54469     0.26866
H      2.70841     1.40383    -0.02921
O      3.88002     0.11812    -0.80887
H      3.22098    -0.15762    -1.46277
O      1.15188     0.49335    -2.16749
H      0.89365     1.19385    -1.53393
O     -0.11050     0.17949    -2.77786
H     -0.25318    -0.73715    -2.47433
O     -0.09210    -4.36637    -0.46780
H     -0.30167    -5.28109    -0.26282
O     -0.05949    -3.77861     0.83903
H      0.62863    -3.10499     0.70949
