 28
-1061.6372726684815
O     -2.39215    -0.66265    -1.82241
H     -2.01889    -0.49915    -2.69675
O     -2.42213    -2.09131    -1.73985
H     -1.60675    -2.27404    -1.22922
O     -0.27593    -0.34192     1.58641
H     -1.04138     0.25680     1.51481
O      0.31560    -0.00732     2.83598
H      1.06826     0.51584     2.52908
O      3.84998    -1.11727     0.13942
H      4.23298    -1.95747     0.40925
O      2.65981    -1.09414     0.93549
H      0.29893    -0.74089    -1.08497
O     -0.11735     0.91299    -1.06300
H      0.59649     1.36150    -0.57588
O     -0.72905     1.96072    -1.81108
H     -1.53706     2.08604    -1.29429
O     -2.76379     0.61941     0.48509
H     -2.62078     0.14288    -0.36295
O     -3.29454     1.85860     0.01273
H     -4.22793     1.76395     0.22464
O     -0.20838    -2.30801    -0.15348
H     -0.31292    -1.71159     0.61359
O      0.76675    -1.58021    -0.90168
H      1.96569    -1.32764     0.27304
O      2.10513     2.16825     1.52136
H      2.65992     2.94633     1.62698
O      2.45509     1.72583     0.20747
H      2.96520     0.92143     0.39908
