 32
-1213.3142555728118
O      2.05280    -0.70849     0.74412
H      2.07831     0.13324     0.24266
O      3.38047    -1.19045     0.56868
H      3.22816    -1.82439    -0.14405
O     -0.86525    -1.98790     0.16059
H     -0.52563    -1.46493     0.91586
O     -0.28739    -1.30914    -0.95233
H     -0.96708    -0.63677    -1.18390
O     -1.44036     1.86232    -1.17511
H     -0.54962     1.67688    -1.54035
O     -2.08263     0.60594    -1.42326
H     -2.66923     0.50535    -0.64532
O     -1.17554     2.00875     1.47907
H     -1.37855     2.09654     0.52533
O      0.14196     2.57424     1.53384
H      0.53906     1.95010     2.16735
O      1.87436     1.61017    -0.61217
H      1.28613     2.21441    -0.13103
O      1.10224     1.28171    -1.77022
H      1.53731     0.45318    -2.06390
O      2.08638    -2.08457    -1.81218
H      1.19664    -1.86733    -1.45962
O      2.29156    -0.96273    -2.66399
H      2.18840    -1.34684    -3.54073
O     -0.57809    -0.40141     2.34685
H     -1.09518     0.38026     2.07007
O      0.64038     0.23925     2.75059
H      1.27184    -0.20427     2.14480
O     -3.29579    -0.14793     0.78293
H     -3.97615    -0.16126     1.46411
O     -3.49274    -1.40851     0.14179
H     -2.57699    -1.74998     0.18675
