 24
-909.9738769725926
O     -2.07979     0.39027    -2.10905
H     -1.42576    -0.32182    -2.11404
O     -3.13784    -0.29303    -1.43017
H     -3.90555     0.06983    -1.88009
O      0.74521    -2.15918    -0.69814
H      1.53858    -1.66211    -0.44773
O     -0.23248    -1.12992    -0.67797
H     -0.69795    -1.24208     0.18634
O      3.43191     0.72455     0.13851
H      2.65751     1.17665    -0.24014
O      3.33755    -0.54372    -0.49972
H      4.03430    -0.50294    -1.16505
O     -2.52587     0.16961     1.21906
H     -2.83880    -0.11884     0.35052
O     -1.68748    -0.94891     1.56102
H     -1.21262    -0.59520     2.32697
O      0.47567     0.81533     2.36371
H      0.13865     1.23649     1.55814
O      1.27408    -0.25265     1.83653
H      2.17202     0.11554     1.83827
O      0.81292     1.23976    -1.10223
H      0.52335     0.31545    -0.94049
O     -0.20740     1.96001    -0.39885
H     -1.00314     1.68884    -0.87918
