 36
-1364.973136139455
O      0.74675     1.09247     1.12248
H      1.67525     0.96768     1.41835
O      0.04410     1.32769     2.35216
H     -0.04861     0.40555     2.66325
O      2.36882    -2.04252    -0.24939
H      1.98936    -2.57134    -0.97153
O      1.15458    -1.63175     0.38231
H      1.02971    -0.73301     0.02291
O     -1.56536    -1.70828     2.12371
H     -2.05686    -0.86337     2.16927
O     -0.27272    -1.33086     2.60337
H      0.30510    -1.61008     1.86797
O      0.71355    -1.78360    -3.17689
H      0.29156    -2.17999    -3.94475
O      0.48210    -2.74220    -2.15301
H     -0.30780    -2.38218    -1.69236
O     -2.86867     0.54122     1.45545
H     -2.65871     0.31479     0.52774
O     -2.45037     1.90312     1.55210
H     -1.54410     1.79762     1.91493
O     -1.52474     3.39662    -0.61952
H     -2.00019     2.96522     0.11467
O     -1.56795     2.36025    -1.60308
H     -2.16074     2.72697    -2.26765
O      0.40615     0.25682    -1.56310
H      0.70504    -0.33828    -2.28532
O      1.15462     1.45619    -1.74917
H      0.45932     2.09731    -1.52923
O      3.23032     0.20873     1.10272
H      3.18638    -0.67398     0.68860
O      3.80122     1.02442     0.08099
H      3.02657     1.27252    -0.44533
O     -1.96428    -0.55750    -0.79141
H     -1.10790    -0.12818    -0.99059
O     -1.55161    -1.90747    -0.56650
H     -1.56934    -1.95182     0.41573
