 40
-1516.638554186072
O      3.75186     2.18095    -0.49068
H      2.97899     2.23616    -1.06737
O      3.67702     0.81630    -0.07993
H      3.28965     0.87511     0.80664
O      1.16007     1.22477    -2.09659
H      0.31943     1.66789    -2.30652
O      0.96671     0.94591    -0.70385
H      0.42873     0.11376    -0.72764
O     -0.42196     2.22287     1.14918
H      0.18060     1.79796     0.49706
O     -0.46033     1.28156     2.23105
H     -1.29551     0.81484     2.01931
O      1.91689     0.05875     2.17954
H      1.02224     0.45280     2.28936
O      1.63532    -1.34766     2.22032
H      2.18260    -1.66382     1.47757
O     -1.31640     2.73755    -2.61032
H     -1.46396     2.94996    -3.53666
O     -1.86021     1.42029    -2.54049
H     -2.44567     1.49711    -1.76949
O     -1.62073    -1.52410     3.04230
H     -2.51209    -1.78500     2.80097
O     -0.92957    -1.87819     1.84735
H      0.01128    -1.74483     2.12130
O     -2.84500     1.63632     0.17889
H     -2.05899     2.16100     0.42518
O     -2.65752     0.51808     1.05676
H     -2.87524    -0.23506     0.47230
O      2.60797    -1.41090    -1.07539
H      2.87382    -0.48103    -0.89094
O      3.09428    -2.06648     0.09843
H      4.04226    -2.12690    -0.06354
O      0.06673    -2.45983    -1.16661
H      0.98348    -2.15210    -1.27076
O     -0.52294    -1.25136    -0.68590
H     -0.80430    -1.51131     0.21781
O     -3.11911    -1.34974    -1.84908
H     -2.15415    -1.44345    -1.87128
O     -3.35571    -1.59448    -0.45791
H     -3.97885    -2.32853    -0.47386
