 32
-1213.311242424206
O      2.38820     1.14557    -0.81867
H      2.33208     1.35189     0.13108
O      1.68185    -0.09809    -0.85734
H      0.85833     0.14671    -1.32014
O      1.20964    -1.53888     1.30791
H      1.41196    -0.94532     0.54802
O      0.62288    -0.62340     2.23310
H     -0.33691    -0.70400     2.03468
O     -0.88045    -1.21521    -1.59156
H     -0.40741    -2.05950    -1.65237
O     -1.53923    -1.11022    -2.85476
H     -1.27241    -0.20644    -3.08057
O      1.31400     2.51197     2.43451
H      1.94390     3.11382     2.84073
O      2.16698     1.49531     1.92382
H      1.66342     0.69790     2.20449
O      0.01023    -3.51651    -0.12498
H      0.41735    -2.89124     0.50811
O     -1.32306    -3.58917     0.36151
H     -1.34634    -4.45794     0.77302
O     -0.41738     1.52374    -2.27371
H     -0.42172     1.99003    -1.41046
O      0.48679     2.28037    -3.07509
H      1.32887     2.12037    -2.62539
O     -0.27742     2.13728     0.31320
H      0.27133     2.34348     1.09625
O     -1.60770     2.23505     0.84472
H     -1.91280     1.31559     0.74820
O     -1.87143    -1.21523     1.49399
H     -1.83097    -2.09107     1.06434
O     -2.38259    -0.37559     0.44938
H     -1.86244    -0.66351    -0.33183
