 24
-909.9786461130001
O     -1.44185    -0.70984     1.01493
H     -0.80279    -0.76175     1.74576
O     -1.49648     0.70005     0.77270
H     -1.49055     0.73457    -0.20401
O     -0.78414     1.07861    -1.78049
H      0.11119     0.68404    -1.67778
O     -0.50810     2.46311    -1.75857
H     -0.08355     2.58665    -0.89659
O      1.44812    -0.03466    -0.88393
H      1.63887     0.51718    -0.09461
O      1.05219    -1.27616    -0.28932
H      0.28177    -1.52068    -0.84449
O     -1.10332    -1.87293    -1.73995
H     -1.95063    -2.18718    -1.39863
O     -1.38249    -1.50416    -3.08721
H     -1.43010    -0.53862    -2.99854
O      1.69619    -1.14282     2.29581
H      1.44766    -1.30986     1.36223
O      0.41369    -1.12610     2.91413
H      0.43805    -1.91614     3.46232
O      1.73763     1.53378     1.23280
H      1.65104     0.96881     2.01762
O      0.55940     2.34769     1.23518
H     -0.16437     1.68856     1.17413
