 16
-606.6393430912934
O     -1.81545    -1.28999     0.47321
H     -2.41455    -1.50118    -0.24853
O     -2.44441    -0.16610     1.09428
H     -1.92841     0.56822     0.73067
O      1.49416    -0.84207     1.25232
H      1.01581     0.00468     1.26007
O      0.85741    -1.55776     0.19458
H     -0.08881    -1.49810     0.42742
O      0.50978     0.04072    -2.61477
H      1.13930     0.14921    -3.33404
O      1.32378     0.39579    -1.49511
H      1.34636    -0.44931    -0.98347
O     -0.40519     1.76552     0.07793
H      0.19596     1.32749    -0.56532
O      0.34464     1.62089     1.28849
H      0.85476     2.43816     1.31150
