 32
-1213.3098465755443
O      3.24447    -1.35992     1.29954
H      2.31923    -1.49523     1.00710
O      3.98072    -1.77545     0.15022
H      4.29990    -2.64749     0.40659
O      0.66323    -1.35065     0.56982
H      0.35576    -0.43089     0.74456
O      0.57330    -1.47227    -0.85585
H      1.38409    -1.02116    -1.14834
O     -1.94375    -0.85008    -1.55144
H     -1.02525    -1.09107    -1.29452
O     -1.88567     0.57998    -1.63550
H     -2.01863     0.83202    -0.70572
O      0.04496     1.13368     1.31300
H     -0.37388     1.14811     2.20009
O     -0.84637     1.98501     0.58416
H     -0.25124     2.29914    -0.12466
O      2.73319    -0.27174    -2.54235
H      1.98586     0.28127    -2.82520
O      2.73131     0.11753    -1.16205
H      3.39378    -0.48893    -0.77353
O      0.53678     1.32130    -2.42743
H     -0.37765     1.07121    -2.16628
O      0.90970     2.26526    -1.41067
H      1.67899     1.80555    -1.04499
O     -1.80311    -0.35125     2.94805
H     -2.40004    -0.09452     2.22373
O     -1.47345     0.93247     3.48155
H     -1.38002     0.72997     4.41658
O     -3.34113     0.21215     0.78559
H     -4.13958     0.73649     0.66430
O     -3.76616    -1.09860     0.39294
H     -3.22535    -1.18413    -0.41866
