 20
-758.3023980476728
O     -1.36669    -1.35082     0.72058
H     -1.69468    -2.14242     1.15780
O     -1.28605    -0.41482     1.79898
H     -0.34367    -0.52943     2.05666
O      0.92169     1.92062    -1.28960
H      1.62791     1.28816    -1.47896
O      0.18523     1.13879    -0.32943
H     -0.74970     1.32270    -0.55300
O      1.33278    -0.88253     2.03248
H      1.57728    -1.11556     1.12277
O      1.76380     0.46054     2.17863
H      1.28797     0.90334     1.45879
O      2.40025    -0.78868    -1.50108
H      2.49895    -1.29355    -2.31372
O      1.30459    -1.47563    -0.88296
H      0.60071    -0.81158    -0.95551
O     -2.36793    -0.00908    -1.41216
H     -2.21309    -0.47035    -0.57130
O     -2.39381     1.34228    -0.94293
H     -2.82773     1.79818    -1.66979
