 24
-909.9829239152666
O     -1.09317    -0.76280    -2.24651
H     -1.47181     0.11790    -2.05031
O     -2.04451    -1.57311    -1.54227
H     -1.51360    -1.85127    -0.77322
O     -0.47057    -1.88135     0.61806
H      0.40837    -1.84102     0.19516
O     -0.46435    -0.64397     1.33868
H     -1.17260    -0.13141     0.89686
O      1.85366    -1.41973    -0.64701
H      2.37379    -1.02352     0.06599
O      1.43903    -0.25960    -1.37034
H      0.62290    -0.58243    -1.80101
O     -2.05561     1.38100    -1.02186
H     -1.24897     1.80379    -0.66227
O     -2.49482     0.59053     0.09505
H     -2.96160    -0.11814    -0.36925
O      2.08218    -0.47554     2.04800
H      1.10878    -0.40600     1.94548
O      2.46723     0.89390     2.07718
H      2.68616     1.02589     3.00425
O      0.48738     2.14728    -0.45260
H      0.89923     1.29017    -0.66402
O      0.33953     2.11947     0.96759
H      1.21460     1.83620     1.28390
