 32
-1213.3123355321347
O      2.29949    -1.97463     1.08508
H      1.55172    -2.28722     0.56566
O      1.69552    -0.83655     1.69379
H      2.39469    -0.16642     1.56959
O      0.67990    -1.15555    -1.61462
H     -0.00756    -0.74611    -2.17644
O     -0.09885    -1.61738    -0.49618
H     -0.87202    -2.02985    -0.95577
O     -2.29589    -2.09123    -1.87742
H     -2.58235    -1.21988    -2.22313
O     -3.32523    -2.44978    -0.96041
H     -3.21078    -1.82096    -0.23475
O      1.74143     1.25737    -1.05791
H      1.53366     0.30747    -1.18662
O      0.44640     1.84066    -0.92195
H      0.26174     1.73199     0.03841
O      2.99827     2.26789     1.05256
H      2.58573     1.99529     0.20250
O      3.56247     1.03143     1.48524
H      4.41720     1.00297     1.04323
O     -2.50421     0.61106    -2.05166
H     -2.33335     0.66177    -1.08677
O     -1.16711     0.52857    -2.55704
H     -0.69002     1.22589    -2.05430
O      0.24938     1.77084     1.75513
H      1.12933     2.03916     2.06919
O     -0.17472     0.79808     2.71156
H      0.36885     0.03101     2.45118
O     -2.38755    -0.24461     1.42781
H     -2.06814     0.27069     2.18650
O     -1.59515     0.32160     0.39701
H     -0.91722    -0.37610     0.26542
