 36
-1364.9750214520434
O     -1.47371     3.58988    -2.77800
H     -0.72138     3.84443    -2.22877
O     -1.12727     2.24646    -3.09612
H     -1.59777     1.73090    -2.40514
O     -1.83467     0.54120    -1.13825
H     -1.32498    -0.24772    -1.40864
O     -1.03944     0.96701    -0.01928
H     -1.42977     0.44703     0.71860
O     -2.05104    -0.73082     1.87171
H     -1.55226    -0.95859     2.70176
O     -2.08993    -1.99611     1.21591
H     -2.89567    -2.38273     1.56922
O      0.05337    -1.23188    -1.61536
H      0.65681    -0.84290    -2.27475
O      0.03608    -2.62349    -1.93019
H      0.39631    -2.97223    -1.10188
O      1.19891     0.81549    -3.37498
H      0.42571     1.40489    -3.26012
O      1.86387     0.92806    -2.11822
H      2.49530     1.64366    -2.26354
O      0.28832    -0.51724     4.01605
H      0.58518    -0.24991     3.12762
O     -0.48226    -1.68411     3.74807
H      0.15371    -2.26170     3.27366
O      0.55855     2.96064    -0.62051
H     -0.05750     2.21668    -0.42238
O      1.49651     2.80994     0.43338
H      1.38829     3.63321     0.91981
O      0.25037    -3.28171     0.89505
H     -0.55613    -2.75700     1.05270
O      1.11816    -2.81903     1.92624
H      1.51543    -2.02042     1.52206
O      1.15822     0.43677     1.63530
H      1.37259     1.29254     1.20724
O      1.80989    -0.49747     0.78310
H      1.19427    -0.53127     0.03211
