 32
-1213.3086025382406
O      1.30952     0.60587     0.51183
H      1.38231     0.37869     1.45394
O      2.51734     1.32959     0.25008
H      2.97257     0.68403    -0.33271
O      0.48062    -2.27331     0.26507
H      0.07042    -1.75596     0.97705
O     -0.34257    -1.93837    -0.84801
H     -1.25106    -1.95723    -0.47337
O     -0.79469     1.81302    -0.54839
H      0.00724     1.37144    -0.16996
O     -1.45833     0.73624    -1.21895
H     -0.80581     0.53039    -1.92002
O     -1.23458     2.64022     2.38416
H     -0.96728     3.53808     2.16447
O     -2.34439     2.40003     1.51619
H     -1.88606     2.21457     0.66397
O      3.47253    -0.52051    -1.47859
H      2.77026    -0.64951    -2.14069
O      3.42247    -1.75569    -0.76524
H      2.57274    -1.68724    -0.30639
O      0.48059     0.28664    -2.98059
H      0.41530     0.35945    -3.93567
O      1.14099    -0.96366    -2.83061
H      0.57852    -1.37528    -2.14097
O     -0.80027    -0.62326     2.45741
H     -1.66470    -0.19447     2.34899
O      0.04588     0.37299     3.03357
H     -0.40289     1.21113     2.80357
O     -2.99694    -0.44227     0.61920
H     -2.49703     0.01026    -0.09360
O     -2.72536    -1.80400     0.31116
H     -3.59863    -2.14997     0.10372
