 32
-1213.3105102679021
O      3.66654     0.39260     0.49405
H      3.76367     0.73710    -0.40651
O      2.49234     1.12010     0.87697
H      2.16119     0.58542     1.62797
O     -1.99210    -2.14526    -0.56582
H     -2.19909    -2.09139     0.37260
O     -0.80196    -1.37392    -0.60841
H     -1.08442    -0.55351    -1.07829
O     -1.27629     0.84536    -1.97509
H     -0.32926     1.10805    -1.98923
O     -1.85354     1.99851    -1.36305
H     -2.71825     1.65436    -1.07035
O     -0.52627     1.41753     0.92731
H     -1.00408     1.73510     0.13577
O     -1.46597     0.48946     1.49877
H     -0.85630    -0.19985     1.81601
O      1.23064     1.35126    -1.42939
H      1.42516     1.37530    -0.46690
O      2.42800     0.78014    -1.95961
H      2.21511    -0.16839    -1.89075
O      1.75326    -1.70794    -1.22069
H      0.78550    -1.69792    -1.10732
O      2.15805    -1.80985     0.14588
H      2.80976    -1.08448     0.21176
O      1.55142    -0.46789     2.77482
H      1.96476    -1.07652     3.39429
O      0.53263    -1.26110     2.16998
H      0.99338    -1.54364     1.34656
O     -3.74769     0.82763     0.17115
H     -3.04414     0.64274     0.83015
O     -4.39919    -0.43425     0.05301
H     -3.91904    -0.83353    -0.68400
