 32
-1213.3128128687922
O      2.57003     0.03459     0.37649
H      2.78541    -0.24236    -0.53564
O      2.10617     1.36934     0.20685
H      1.23834     1.31431     0.63560
O     -0.67756    -1.50772    -0.86231
H     -0.36664    -0.68027    -1.29131
O      0.53392    -2.05756    -0.33648
H      0.52003    -1.69863     0.58408
O     -0.69342     3.03460    -0.23987
H     -0.16257     2.97143    -1.04962
O     -0.77009     1.66894     0.15223
H     -1.47490     1.30247    -0.40733
O      1.43638    -0.78181     2.67296
H      2.02140    -0.49661     1.94991
O      0.21293    -0.75258     1.92185
H     -0.48680    -0.82526     2.59624
O      0.18237     0.52779    -2.32253
H      0.73293    -0.04197    -2.88713
O      0.99377     1.69885    -2.20730
H      1.48537     1.53719    -1.37593
O      3.14240    -0.95144    -2.03840
H      3.85652    -1.54188    -2.29905
O      1.98895    -1.62662    -2.53559
H      1.55312    -1.91288    -1.70309
O     -2.34288    -0.45197     2.86092
H     -2.83954    -0.98297     2.21898
O     -2.59762     0.86912     2.37367
H     -1.76254     1.09344     1.93920
O     -3.08519    -1.14263     0.26869
H     -2.20165    -1.36065    -0.08701
O     -3.28692     0.16797    -0.28474
H     -3.52972     0.65019     0.51788
