 24
-909.9736749249412
O     -2.47209     0.24130    -0.40529
H     -1.60119    -0.19214    -0.31941
O     -2.29871     1.44288     0.35359
H     -2.84836     1.28157     1.12683
O      0.13516    -1.82864    -2.93950
H      0.16525    -2.54090    -3.58366
O      1.52407    -1.64608    -2.64650
H      1.53094    -0.68885    -2.50765
O      1.53134     0.93554    -1.50568
H      0.92858     1.63810    -1.18409
O      2.04298     0.46777    -0.23898
H      1.44002    -0.27527    -0.07232
O     -0.69879    -2.31246     0.53164
H     -0.85014    -1.75404     1.30512
O     -0.26912    -1.28159    -0.36376
H     -0.18402    -1.74088    -1.22541
O     -0.58678     0.03530     2.36618
H     -0.15244     0.85862     2.04475
O      0.44960    -0.52585     3.17966
H      0.07326    -0.41856     4.05771
O      0.70445     2.14988     1.29658
H      1.48283     1.66988     0.95320
O      0.08293     2.51337     0.05579
H     -0.80258     2.09906     0.16451
