 40
-1516.6416999629014
O      3.08766     0.21663    -1.08465
H      3.23600    -0.47635    -0.40625
O      3.59028     1.40235    -0.47654
H      2.92375     1.58587     0.21580
O      0.46172    -1.33989     1.18033
H      0.09933    -0.91783     0.37462
O      0.33236    -0.31314     2.15948
H     -0.49910    -0.57012     2.61182
O      0.73819     1.19120    -1.49476
H      1.64107     0.77579    -1.54707
O      0.06865     0.72418    -2.66487
H      0.04390    -0.23393    -2.46151
O     -3.08102     1.01997    -2.24787
H     -3.18945     1.09071    -3.20063
O     -2.13680     2.04041    -1.94875
H     -1.29047     1.64071    -2.25655
O     -1.77585     1.78864     1.83470
H     -0.85933     2.10132     1.63162
O     -2.58034     2.71011     1.10615
H     -2.34605     2.47866     0.19794
O      0.58277     2.47350     0.83189
H      0.62034     2.12219    -0.08132
O      1.71612     1.83209     1.41954
H      1.29563     1.01588     1.75674
O     -2.96644    -0.54783     2.23650
H     -2.59030     0.32818     1.97724
O     -2.06899    -0.92196     3.28506
H     -2.43332    -0.46390     4.04843
O     -2.34168    -1.76869    -0.34083
H     -2.56555    -1.63870     0.59333
O     -1.70612    -0.51568    -0.58125
H     -2.30960    -0.07148    -1.21599
O      3.04435    -1.79284     0.76798
H      2.10114    -1.73749     1.04005
O      3.05966    -3.01359     0.03209
H      3.69076    -3.53236     0.53801
O      1.02221    -2.73987    -2.35170
H      1.77853    -2.78434    -1.75538
O      0.28229    -1.72182    -1.69431
H     -0.53449    -2.16204    -1.40008
