 36
-1364.982766183272
O      2.28012     3.01798     0.59411
H      2.48211     3.92639     0.35148
O      0.88025     2.93212     0.37903
H      0.82706     2.51518    -0.50981
O      0.29682    -2.96419     1.65832
H      0.83876    -2.47312     1.02474
O     -0.68262    -1.99485     2.03044
H     -1.46508    -2.28389     1.51888
O      0.66255     0.25065     1.99891
H      0.14842    -0.54832     2.27011
O     -0.33083     1.27535     2.13620
H      0.12961     2.02154     1.71402
O      0.43588     1.71429    -1.95747
H     -0.42046     1.24006    -2.05894
O      1.36101     0.82631    -2.59506
H      1.29370     0.06558    -1.99366
O     -1.41726    -1.09859    -1.63964
H     -0.57634    -1.01466    -1.15132
O     -1.82927     0.26425    -1.76439
H     -2.21109     0.40791    -0.86717
O     -3.70104     0.27485     1.37504
H     -3.94614    -0.62830     1.13544
O     -2.41336     0.30846     0.77186
H     -1.81756     0.65858     1.46680
O      3.54560     0.91221    -0.42703
H      3.09083     1.67000    -0.01093
O      3.86439     1.44168    -1.71070
H      3.02764     1.27129    -2.18131
O      0.98652    -0.64464    -0.46682
H      0.97199    -0.21539     0.42370
O      2.22270    -1.34420    -0.48756
H      2.84609    -0.57175    -0.50726
O     -3.46374    -2.17904    -0.31282
H     -2.75965    -1.81527    -0.89693
O     -2.70920    -2.99583     0.57473
H     -2.75499    -3.87283     0.17928
