 32
-1213.3071398793513
O     -1.35181    -0.28309     0.52293
H     -1.56145     0.34888     1.24308
O     -1.65968     0.49838    -0.63423
H     -2.01156    -0.17401    -1.26709
O      1.82726    -0.92684    -1.64896
H      1.31629    -0.11407    -1.81476
O      0.99575    -1.92419    -2.25828
H      0.74470    -2.41803    -1.45431
O     -1.82668    -1.20644    -2.64246
H     -0.90318    -1.41504    -2.85725
O     -2.16750    -0.14485    -3.53268
H     -1.41338     0.46126    -3.43622
O     -0.09718     1.59361    -3.23556
H     -0.16679     2.55331    -3.24484
O      0.46131     1.35595    -1.95387
H     -0.33850     1.18506    -1.39480
O      0.74344     1.84787     0.89341
H      0.55873     1.43461     1.74915
O      2.02397     1.26199     0.60016
H      2.17241     1.60926    -0.28772
O      1.57454    -1.75399     0.83183
H      1.92454    -1.28392     0.04471
O      0.36298    -2.28847     0.29157
H     -0.24870    -1.52611     0.36266
O      1.97861     0.03078     3.52013
H      2.48086     0.35279     2.75797
O      0.73576    -0.30091     2.89970
H      1.00636    -0.95380     2.21094
O     -1.82543     1.30445     2.60234
H     -2.23088     2.14046     2.85534
O     -1.93425     0.51366     3.78443
H     -1.02241     0.19168     3.83405
