 40
-1516.6456746569413
O      2.43641     3.40198    -0.09338
H      2.44981     4.22466     0.40650
O      3.17018     3.74680    -1.26897
H      2.55059     3.43710    -1.94524
O      2.46319     0.80593     0.60974
H      2.55812     1.74201     0.33454
O      2.74095     0.10044    -0.60721
H      2.17268    -0.68755    -0.49104
O      0.30713     0.22610     1.96062
H      1.16920     0.30655     1.47670
O      0.19476     1.51648     2.54845
H     -0.03252     2.02042     1.74393
O     -1.65727    -2.99476    -1.94099
H     -0.88270    -3.10535    -1.34323
O     -2.73323    -2.91489    -1.00852
H     -3.17197    -3.76282    -1.13931
O     -0.48731     2.48719     0.16421
H     -0.02794     2.28333    -0.67791
O     -1.81405     2.04903    -0.13188
H     -2.11145     1.71182     0.72832
O      0.47967     1.67874    -2.19972
H      0.03432     0.92058    -2.62462
O      1.82442     1.58298    -2.67556
H      2.22909     1.03235    -1.97628
O     -1.26762    -0.37429    -2.62929
H     -1.47563    -1.32044    -2.71662
O     -1.22141    -0.33636    -1.20132
H     -1.63656     0.52813    -0.99358
O     -2.66441    -1.34335     1.67634
H     -2.65717    -1.47952     0.71844
O     -2.33368     0.03818     1.81698
H     -1.37529     0.01216     2.02124
O      0.17227    -2.24738     3.21660
H      0.34468    -1.39891     2.77705
O     -0.60253    -2.93385     2.23497
H     -1.45612    -2.45857     2.26367
O      0.38487    -3.01287    -0.21538
H      0.09811    -3.14788     0.71833
O      0.82630    -1.66108    -0.13106
H      0.04030    -1.15531    -0.44406
