 32
-1213.309923491829
O      2.48906    -3.45211    -1.13086
H      3.38775    -3.79493    -1.11755
O      2.72495    -2.05602    -0.92562
H      2.22588    -1.90400    -0.09548
O     -2.28278    -0.58747     2.62512
H     -2.55695    -1.00530     3.44626
O     -2.93402     0.68199     2.69573
H     -2.14880     1.26708     2.69745
O      1.11604    -0.75768    -2.99940
H      1.66536    -1.39929    -2.53034
O     -0.18178    -1.06966    -2.47308
H     -0.57630    -0.17520    -2.47099
O     -0.53882     1.82130     2.32212
H      0.00703     1.08151     1.99206
O     -0.51037     2.72021     1.21516
H     -1.14063     2.29160     0.60283
O      1.00028    -0.01170     1.22131
H      1.41750     0.28631     0.39365
O      1.16403    -1.42720     1.20783
H      0.27917    -1.72254     0.89846
O     -1.70388     1.44944    -0.76070
H     -1.80497     0.49190    -0.55990
O     -0.92938     1.43938    -1.96129
H     -0.14251     1.94413    -1.69374
O      2.31158     1.83255    -0.53082
H      3.08620     2.31117    -0.84382
O      1.26324     2.73405    -0.86742
H      0.88338     2.91520     0.01101
O     -1.05407    -2.08592    -0.16060
H     -0.71104    -1.84090    -1.04783
O     -2.04550    -1.07522     0.01792
H     -2.13549    -1.03062     0.99532
