 32
-1213.3117000999882
O      2.82028     0.87470     1.78690
H      1.98315     1.36166     1.61872
O      2.34489    -0.25195     2.51550
H      2.51564    -0.00537     3.43048
O      0.43376    -1.90726     1.71145
H      1.11066    -1.22843     1.89035
O     -0.69842    -1.11707     1.32443
H     -0.88020    -1.48871     0.44067
O     -0.25885    -1.53797    -3.06523
H     -0.08260    -1.67570    -4.00179
O     -1.66006    -1.25406    -3.06254
H     -1.65695    -0.46331    -2.49577
O     -1.61122     0.78917    -1.24637
H     -2.06842     1.42545    -0.66091
O     -0.28968     1.33403    -1.27723
H      0.27158     0.53216    -1.31149
O      1.47239    -0.61359    -0.85754
H      1.57080    -1.57224    -0.99164
O      2.79847    -0.10312    -1.00695
H      2.98946     0.12964    -0.08729
O     -2.69511     2.38231     0.68291
H     -1.98092     2.23400     1.34285
O     -2.64464     3.79217     0.50026
H     -3.51303     4.04388     0.82300
O      0.71952    -3.34450    -0.48967
H      0.76922    -3.08116     0.44525
O     -0.58309    -2.80494    -0.76913
H     -0.50091    -2.53143    -1.70292
O     -0.56614     1.45527     1.98670
H     -0.55310     0.50087     1.74435
O      0.46713     2.02447     1.18169
H      0.15766     1.85631     0.26226
