 36
-1364.9781681476052
O     -0.94663     1.07040     2.51017
H      0.02847     1.09342     2.55196
O     -1.19244     1.76606     1.28103
H     -1.41403     1.03329     0.67230
O      1.62916     0.31029     2.21638
H      1.28706    -0.58730     2.38944
O      1.81928     0.20305     0.80236
H      1.46743     1.05012     0.48091
O      0.15985    -1.90130     2.01562
H      0.25897    -2.00340     1.04870
O     -1.23101    -1.58357     2.13875
H     -1.20649    -0.61788     2.31065
O      1.01431     2.31861    -0.58589
H      0.66062     3.23207    -0.60900
O      0.69780     1.83273    -1.89057
H      1.47847     1.28329    -2.05362
O      0.50359    -3.05062    -1.58157
H      1.11739    -2.65329    -2.21908
O      0.48827    -1.96569    -0.65054
H     -0.06819    -1.29530    -1.11656
O      0.01882     4.40816     1.14994
H     -0.59774     3.67691     1.29636
O     -0.22731     4.65505    -0.23348
H     -0.27001     5.61509    -0.26548
O     -1.11404    -0.16158    -1.66609
H     -0.72511     0.73646    -1.66358
O     -1.86086    -0.17496    -0.44604
H     -2.20987    -1.10123    -0.46987
O      2.38208    -1.56165    -2.81780
H      3.28746    -1.88589    -2.87199
O      2.51787    -0.43959    -1.95381
H      2.21360    -0.79674    -1.09854
O     -2.28064    -2.76297    -0.71684
H     -1.45396    -3.17963    -1.00975
O     -2.52391    -3.38687     0.55254
H     -2.08439    -2.76079     1.15784
