 24
-909.978015127519
O     -2.05328    -1.52574     0.79507
H     -2.69729    -1.89970     1.40477
O     -2.64719    -0.27664     0.44157
H     -2.00342     0.33809     0.84732
O      0.72035    -1.70651    -0.93190
H      1.21487    -0.89680    -1.15083
O     -0.59386    -1.40225    -1.42089
H     -1.15970    -1.60089    -0.64417
O      2.57496     0.86409     0.25093
H      1.77560     1.37153     0.51269
O      2.20259     0.53620    -1.08466
H      2.94921     0.87900    -1.58489
O     -0.70584     1.24441    -1.78602
H     -0.75676     0.26311    -1.81122
O     -2.05838     1.61279    -2.02027
H     -1.97112     2.08584    -2.85202
O      2.22407    -1.25154     1.95785
H      2.54783    -0.51443     1.41853
O      0.82408    -1.15887     1.69609
H      0.75258    -1.57547     0.81312
O     -0.59595     1.08645     1.56644
H     -0.00590     0.31165     1.70173
O      0.17390     1.90173     0.67969
H     -0.26551     1.74736    -0.18279
