 36
-1364.9726222004942
O      3.04330     0.25540     2.22981
H      3.50328     0.15240     1.38695
O      2.46118    -1.05426     2.37465
H      1.94366    -0.93566     3.18255
O     -3.17389    -0.73957     1.83775
H     -3.89276    -1.37441     1.90863
O     -3.02921    -0.60971     0.42646
H     -2.25016    -1.18230     0.22597
O      2.76890     0.17384    -0.61788
H      2.01016    -0.38146    -0.37398
O      2.20143     1.48558    -0.58057
H      2.16495     1.72195    -1.52115
O     -2.16379     1.72311    -1.18239
H     -2.62573     1.17586    -0.52719
O     -1.03921     0.89774    -1.45117
H     -0.62179     0.76660    -0.57630
O     -0.05194    -1.55952    -2.77872
H      0.42112    -0.81725    -3.20679
O     -1.38012    -1.43533    -3.28730
H     -1.71560    -0.71437    -2.73267
O     -0.70635    -1.40021     2.74650
H     -1.62259    -1.08123     2.64206
O     -0.16493    -0.55054     3.75481
H     -0.04247     0.28008     3.26439
O      1.05065     0.63983    -3.93460
H      0.68056     0.93323    -4.77365
O      0.85871     1.78606    -3.09825
H      0.09299     1.50005    -2.55827
O     -0.32501     1.75508     1.19994
H     -0.17875     2.64551     0.86082
O      0.52489     1.68667     2.33568
H      1.36771     1.37072     1.96399
O      0.14425    -1.11100     0.26406
H     -0.00123    -1.25776     1.22634
O     -0.86106    -1.97010    -0.28811
H     -0.55850    -1.99252    -1.22535
