 16
-606.6362880484858
O     -2.45170     0.53986     0.58105
H     -1.50391     0.63837     0.75610
O     -2.55832     1.38057    -0.57312
H     -3.51285     1.44378    -0.64793
O      2.83239     0.07835     1.59769
H      3.19923     0.82117     2.08881
O      3.54391     0.15661     0.35381
H      2.83556     0.45857    -0.23486
O      0.71920     0.65976    -0.49125
H      0.14791     0.10424    -1.05690
O      0.27958     0.17771     0.79431
H      1.14563     0.03781     1.21700
O     -1.15261    -0.92733    -1.57195
H     -1.93340    -0.51641    -1.16828
O     -1.05460    -2.17441    -0.87623
H     -0.52138    -1.91691    -0.11147
