 36
-1364.9764011310133
O     -0.40246     1.03094     1.94019
H      0.27437     0.32098     1.84245
O      0.11781     2.02963     1.05501
H     -0.70764     2.45568     0.74730
O     -2.42284     2.63362    -1.09780
H     -2.33727     1.67444    -0.92310
O     -2.16066     3.17880     0.19518
H     -3.03591     3.23672     0.59500
O      1.54066    -0.70265     1.31066
H      2.18573    -0.09595     0.89128
O      2.30023    -1.23587     2.40210
H      2.02834    -2.16095     2.30526
O      0.52635     1.77904    -2.49460
H      1.49429     1.79609    -2.52206
O      0.28103     3.02359    -1.83144
H     -0.65583     3.14462    -2.02692
O     -1.87603    -2.57417    -0.06246
H     -0.98022    -2.93417    -0.20045
O     -1.90128    -2.56475     1.38343
H     -2.35126    -1.70982     1.50901
O     -2.64246    -0.03790     0.97158
H     -1.85814     0.42735     1.34101
O     -2.34716     0.00751    -0.43426
H     -2.17448    -0.94466    -0.59994
O      2.74555     1.30527    -0.00497
H      1.95561     1.86890     0.01941
O      2.90627     1.01538    -1.39310
H      2.51645     0.12622    -1.43500
O      1.45486    -1.22133    -1.62114
H      1.62346    -1.85604    -2.32266
O      0.10716    -0.84159    -1.88488
H      0.20183     0.12706    -2.01038
O      0.83286    -3.38117     1.64932
H     -0.04478    -3.09363     1.94588
O      0.68481    -3.24038     0.22978
H      1.13548    -2.39235     0.07870
