 24
-909.9742956573674
O     -0.59768    -1.47081     2.13762
H     -0.20596    -0.61022     2.35330
O     -1.93429    -1.12527     1.79372
H     -1.97379    -1.41690     0.87113
O      1.04655    -0.48756    -2.79136
H      0.07095    -0.37858    -2.74213
O      1.47227     0.87170    -2.90683
H      1.85851     0.86469    -3.78779
O      1.44283    -0.94404    -0.14579
H      1.45928    -0.75974    -1.10705
O      0.65567    -2.14595    -0.12467
H      0.31214    -2.09608     0.78673
O     -1.70390    -1.36330    -1.18431
H     -0.80023    -1.70210    -1.02996
O     -1.44964    -0.16160    -1.92187
H     -1.28122     0.48245    -1.20672
O     -1.06231     2.60375     0.65835
H     -0.21886     2.68158     1.12346
O     -1.02562     1.20480     0.35521
H     -1.69469     0.82492     0.94646
O      1.67914     2.14654     2.04320
H      2.35906     2.26189     2.71384
O      1.33671     0.77139     2.21728
H      1.57533     0.41346     1.34725
