 16
-606.6306512571052
O     -1.93381    -0.33597     2.14268
H     -1.93777     0.11481     1.28840
O     -3.18428    -1.04219     2.08168
H     -3.67499    -0.61203     2.78930
O      1.66696     1.15977     1.66322
H      2.12966     0.79170     2.42258
O      1.76621     0.08213     0.72768
H      0.84468    -0.21154     0.67137
O      2.63060     0.02048    -2.99607
H      2.96399     0.80445    -3.44454
O      1.66097     0.58723    -2.11343
H      2.09832     0.49385    -1.25335
O     -1.75439    -0.03951    -0.72222
H     -2.38600    -0.75481    -0.83202
O     -0.52041    -0.75991    -0.77553
H     -0.08546    -0.33427    -1.52893
