 36
-1364.9802145323758
O     -2.48347     0.04218    -1.82580
H     -1.78816     0.51859    -2.31378
O     -2.87900     1.00132    -0.82950
H     -2.92325     0.39251    -0.06985
O     -2.41121    -1.01589     0.91958
H     -2.10824    -1.13817     1.83803
O     -1.37947    -1.75431     0.24043
H     -1.28876    -1.25248    -0.59196
O      2.25573     0.65787     1.75273
H      2.28153     0.88112     0.79805
O      2.58105    -0.73437     1.70002
H      1.74937    -1.14973     2.00389
O      0.55637    -1.58320    -3.59543
H      0.02588    -2.25730    -4.02892
O      0.09511    -1.70527    -2.25000
H      0.92750    -1.52048    -1.76868
O     -0.33195     0.94040    -3.22513
H      0.11165     0.11081    -3.48022
O      0.67768     1.58455    -2.43939
H      0.14594     2.07847    -1.78212
O     -0.15768     1.29410     0.21376
H     -0.33424     1.42071     1.16521
O     -0.73107     2.47896    -0.34086
H     -1.63000     2.12625    -0.53660
O     -0.52066     1.80523     2.80929
H     -0.34071     2.65343     3.22865
O      0.30154     0.90257     3.54315
H      1.10616     0.88456     2.97253
O      2.52756     0.41626    -0.86450
H      1.87538     0.74128    -1.51429
O      2.36307    -1.00791    -0.93824
H      2.62172    -1.22614    -0.02351
O      0.28870    -2.00292     2.23493
H     -0.14322    -2.03733     1.35338
O     -0.81871    -1.52441     3.00908
H     -0.45379    -0.68352     3.33642
