 36
-1364.9732862970943
O      1.62377     2.43271     1.99293
H      2.40046     2.05163     1.54419
O      1.13330     1.28021     2.68861
H      0.18535     1.51819     2.80464
O     -2.16062     0.57452     2.46484
H     -1.51984    -0.02099     2.05158
O     -1.47162     1.82441     2.46075
H     -1.54482     2.10366     1.52159
O     -1.82575    -0.34149    -2.70632
H     -1.71715    -1.30907    -2.65219
O     -1.11986     0.02149    -1.52681
H     -0.18163    -0.13992    -1.78842
O     -1.03642    -3.71247    -0.98233
H     -1.83779    -3.36224    -0.57075
O     -0.96070    -2.89859    -2.16260
H     -0.00320    -2.70869    -2.17854
O      3.48197     1.45062     0.31894
H      4.32989     1.87651     0.15669
O      2.89611     1.49287    -0.97605
H      2.04413     1.92141    -0.79120
O     -1.84653    -1.45372     0.54762
H     -1.65460    -0.91418    -0.26005
O     -3.26850    -1.57626     0.50770
H     -3.53403    -0.95031     1.19547
O      0.22049     2.62287    -0.31993
H      0.49990     2.79179     0.59832
O     -1.17088     2.30990    -0.13325
H     -1.26604     1.51037    -0.69045
O      1.57978    -2.02517    -1.78778
H      1.59885    -1.98049    -0.80992
O      1.38256    -0.65449    -2.15812
H      2.16860    -0.21242    -1.79827
O      0.87266    -0.34970     0.56860
H      1.10140     0.11545     1.40456
O      1.08918    -1.74134     0.84671
H      0.16669    -2.04942     0.82438
