 32
-1213.3129772851605
O     -1.83764    -1.69660    -1.10133
H     -1.56988    -1.47002    -2.01509
O     -0.67458    -2.36031    -0.61643
H     -0.60680    -2.01592     0.28723
O      0.16277    -0.51433     2.95112
H     -0.74844    -0.33434     2.68919
O      0.63266    -1.12351     1.74403
H      1.49067    -0.66596     1.60001
O     -0.35707     0.28888    -3.34774
H     -0.70716     0.64266    -2.50065
O     -1.20705    -0.83884    -3.54759
H     -1.76534    -0.55683    -4.27873
O      1.10517     1.99508     2.73234
H      0.87534     1.11727     3.08985
O     -0.12262     2.33059     2.07336
H      0.09919     2.15153     1.14086
O      0.17004     1.72556    -0.51202
H      0.79669     1.02980    -0.78201
O     -1.07294     1.17722    -0.95705
H     -1.45453     0.82157    -0.12528
O      1.98844    -1.26539    -2.56849
H      1.48674    -0.69400    -3.16459
O      1.44053    -0.86339    -1.31673
H      0.74823    -1.54133    -1.14586
O      2.92589     0.01214     1.03098
H      2.93708    -0.30319     0.11789
O      2.93632     1.42936     0.82808
H      2.36569     1.71866     1.57073
O     -3.06606    -0.84754     1.15935
H     -2.81652    -1.11162     0.25631
O     -2.17611     0.26092     1.31299
H     -2.72456     0.91546     1.75658
