 20
-758.3094070946646
O     -1.12113    -2.63265    -0.40126
H     -0.68157    -2.13367    -1.10342
O     -1.49689    -1.58652     0.48538
H     -0.69884    -1.48488     1.04416
O      1.93529     0.38139    -1.58321
H      1.68965     1.15600    -1.05607
O      0.88523    -0.53455    -1.28859
H      0.08715     0.04792    -1.35950
O      0.85271     2.61261     0.45163
H      0.51419     3.51028     0.47400
O     -0.07004     1.94650     1.31635
H      0.50082     1.24287     1.65264
O      1.58285    -0.41590     1.30021
H      1.42976    -0.63997     0.35488
O      0.69984    -1.31399     1.97809
H      1.28358    -2.03712     2.23122
O     -2.33482     0.50444    -0.94966
H     -2.07759    -0.28100    -0.42148
O     -1.07517     1.17314    -1.09022
H     -0.95417     1.59966    -0.22025
