 20
-758.307880712489
O      0.56565    -1.95547    -0.08828
H      0.17687    -1.59319    -0.90419
O     -0.60165    -2.39868     0.61196
H     -0.87346    -1.58307     1.05779
O      1.07331    -0.35234     2.75222
H      1.80174    -0.57729     3.33932
O      1.77131    -0.20648     1.52020
H      1.40410    -0.95562     0.99589
O      1.72597     1.90520    -0.18154
H      1.74837     1.20385     0.49450
O      0.32871     1.95699    -0.47063
H      0.29842     1.46854    -1.31373
O     -0.09244     0.36684    -2.57723
H     -0.48577     0.45119    -3.45027
O     -0.89275    -0.64719    -1.98009
H     -1.44814    -0.13445    -1.35633
O     -2.30142     0.51101    -0.03599
H     -2.90127     1.18148     0.30886
O     -1.27958     0.45957     0.96156
H     -0.60931     1.07316     0.56720
