 20
-758.3122335935755
O      1.76517    -1.59610    -0.97205
H      1.96781    -1.47545    -0.02527
O      2.54889    -0.57765    -1.58213
H      2.03428     0.22215    -1.39555
O      1.87307    -1.08004     1.65163
H      1.97075    -1.61210     2.44634
O      0.60567    -0.46623     1.85456
H      0.02819    -0.93969     1.21673
O      0.14262     1.85359     0.43037
H      0.49973     1.11127     0.94575
O      0.58484     1.55378    -0.89705
H     -0.05960     0.87109    -1.15990
O     -0.73313    -0.78494    -1.28187
H      0.13383    -1.24511    -1.30470
O     -1.18100    -1.16498     0.02536
H     -1.90264    -0.51416     0.16678
O     -2.94206     0.71073     0.70496
H     -3.88865     0.87347     0.75818
O     -2.50915     1.83233    -0.08087
H     -1.58548     1.91449     0.22948
