 24
-909.9719313176533
O     -1.38404    -0.33371     0.44720
H     -2.21377    -0.01189     0.04279
O     -1.76990    -1.47369     1.23373
H     -0.95214    -1.56277     1.74111
O      0.32916    -1.64914    -1.09365
H     -0.33738    -1.16289    -0.55400
O      0.26670    -0.95638    -2.34396
H     -0.18136    -1.60535    -2.89272
O      2.54070    -0.55064     0.17271
H      2.05453    -1.12428    -0.44443
O      2.60334     0.65791    -0.58011
H      3.49930     0.95305    -0.39706
O     -2.31774     1.74477    -1.13070
H     -1.38341     1.99856    -0.97708
O     -2.23342     0.61062    -1.99473
H     -1.28377     0.48145    -2.12191
O      0.84569    -0.50264     2.29162
H      1.52601    -0.49344     1.59359
O      0.90480    -1.86255     2.72368
H      0.80940    -1.74789     3.67289
O      0.26787     2.02229    -0.53441
H      1.11453     1.53828    -0.56564
O      0.06557     2.23039     0.86009
H     -0.47607     1.45676     1.08003
