 32
-1213.3026092786502
O      3.32947     1.62653    -0.46801
H      3.50465     0.69899    -0.70043
O      3.56104     1.63944     0.94383
H      2.71101     1.34754     1.30082
O     -0.43196    -2.53525    -0.22289
H      0.27879    -2.11721    -0.77177
O     -0.96206    -3.52465    -1.10017
H     -0.52860    -4.31326    -0.76283
O     -2.15957    -0.55065    -1.49033
H     -2.04254    -1.15698    -2.22993
O     -1.91201     0.72051    -2.10790
H     -2.15063     1.29925    -1.36876
O      0.58149     0.00523     1.01727
H      0.09015     0.72242     0.56601
O      0.76753     0.51998     2.33568
H      0.11376    -0.03577     2.78604
O      0.74098     1.18994    -2.16592
H     -0.21808     1.06049    -2.29837
O      0.72936     1.98309    -0.96745
H      1.69132     2.00895    -0.77098
O      2.46698    -1.05911    -0.47048
H      1.85027    -0.72913     0.21550
O      1.54474    -1.30310    -1.54415
H      1.34601    -0.39550    -1.86080
O     -1.94039    -1.08119     1.46948
H     -1.40532    -1.67049     0.89109
O     -1.27054    -1.23617     2.72328
H     -2.02208    -1.31748     3.31606
O     -3.11060     2.15332     1.18278
H     -2.68630     2.82268     1.72281
O     -1.96054     1.48286     0.68028
H     -2.10474     0.56543     1.00266
