 28
-1061.6385799145812
O      0.06922    -0.97457    -2.77417
H      0.92379    -1.27230    -2.41621
O     -0.67224    -2.19628    -2.80713
H     -0.77280    -2.34017    -3.75196
O     -0.11335     1.24326     2.19591
H     -1.08260     1.39680     2.26243
O      0.07491     0.12720     3.07127
H      0.19892    -0.59006     2.42959
O      1.91742     1.86502    -0.32627
H      2.23783     1.32780    -1.06754
O      2.06510     0.88078     0.72004
H      1.94703    -1.02018    -0.43195
O     -1.10704     0.59639    -0.67183
H     -0.99844     0.26069    -1.57935
O     -0.76284     1.98418    -0.80929
H      0.18682     1.98824    -0.56249
O     -3.44739     0.81005     1.25235
H     -2.72447     0.88189     0.61626
O     -2.77756     1.21618     2.44901
H     -2.94411     0.46874     3.03129
O      3.05844    -0.15106    -1.68579
H      3.92317    -0.21616    -1.26733
O      2.40596    -1.33669    -1.23303
H      1.31043     1.12014     1.29983
O      0.07860    -1.40144     0.51079
H     -0.34057    -0.57086     0.19278
O     -1.01200    -2.29909     0.33153
H     -0.98305    -2.44581    -0.62301
