 40
-1516.6478276146818
O      2.81781     3.30087    -0.66147
H      2.30537     2.92946    -1.39257
O      2.75049     2.23241     0.27978
H      2.03053     2.49028     0.88993
O     -1.40813    -1.51249    -0.53711
H     -0.61884    -1.52934     0.04512
O     -0.82177    -1.63231    -1.82896
H     -0.48454    -0.72364    -1.98045
O     -2.68637     1.24274     0.86867
H     -2.97647     1.46823    -0.03848
O     -3.13805    -0.11012     0.98008
H     -2.61366    -0.58026     0.29534
O     -0.02879     1.48940     0.76695
H     -0.98019     1.46596     1.01215
O      0.61854     1.93210     1.95319
H      0.88805     1.05925     2.28841
O     -3.11992     1.48321    -1.76755
H     -3.90080     1.64227    -2.30731
O     -2.25457     2.55589    -2.12812
H     -1.48394     2.05784    -2.43478
O      0.13816     0.81961    -1.79235
H      0.18649     1.11441    -0.85307
O      1.32205     1.34149    -2.38519
H      1.96751     0.63883    -2.14955
O      2.88616    -0.42655    -0.07376
H      2.96856     0.54852    -0.00645
O      2.90387    -0.62044    -1.49349
H      2.47848    -1.50032    -1.55030
O      0.71964    -0.68708     2.29113
H     -0.19032    -0.85897     2.61852
O      0.70564    -1.38127     1.04522
H      1.52129    -1.01623     0.62700
O      1.40938    -3.95541    -0.54754
H      1.48943    -3.46309     0.27880
O      1.51048    -2.91325    -1.50964
H      0.57215    -2.69290    -1.69915
O     -1.81374    -0.96845     3.14770
H     -2.46243    -0.62416     2.49226
O     -2.16513    -2.34774     3.19806
H     -2.38098    -2.43975     4.12922
