 36
-1364.9773085079796
O      0.95290     1.16912    -1.66526
H      1.21693     1.82993    -0.99332
O     -0.23235     1.74965    -2.20178
H     -0.87241     1.45477    -1.51972
O     -0.82616    -0.17027    -4.01982
H     -0.59101     0.68750    -3.61225
O     -2.25211    -0.11398    -3.98855
H     -2.45418    -0.24474    -4.91916
O     -0.11770     0.21729     3.14831
H     -0.99608    -0.21511     3.09442
O     -0.30449     1.23021     2.15670
H      0.57375     1.64794     2.12199
O      3.76604    -1.04768    -0.38146
H      3.12333    -1.53697    -0.90850
O      2.90357    -0.19733     0.35906
H      2.43419    -0.83001     0.96313
O     -3.62497    -0.30609     2.98747
H     -4.03740    -0.99192     3.51757
O     -2.44556    -0.97942     2.56813
H     -2.52309    -0.92602     1.59095
O     -1.52112     0.71886    -0.15531
H     -1.04148     0.75620     0.69992
O     -2.18719    -0.54783    -0.08906
H     -1.63224    -1.07698    -0.69865
O      2.14349     2.15436     1.37194
H      2.52924     1.34002     0.98602
O      1.80807     2.86708     0.18573
H      2.47239     3.56309     0.16283
O     -0.49129    -1.72778    -1.81485
H     -0.53439    -1.29443    -2.69320
O      0.83651    -1.45165    -1.37866
H      0.90066    -0.47041    -1.44573
O      0.14979    -2.04818     1.14730
H      0.41538    -1.89441     0.21872
O      1.32946    -1.66462     1.87733
H      0.93037    -1.03604     2.51068
