 40
-1516.644821374945
O      1.13168     3.47569    -1.31181
H      1.44090     4.08133    -1.99288
O     -0.28318     3.57189    -1.43667
H     -0.48875     2.70015    -1.84925
O     -1.02802    -2.37422     1.02569
H     -1.60109    -1.63436     1.29189
O     -1.98098    -3.29072     0.50158
H     -1.81962    -3.12766    -0.44670
O      0.14405     0.66535     3.05463
H      0.58898    -0.20216     3.01317
O      0.56636     1.15416     1.77407
H     -0.07233     1.87722     1.61378
O     -2.38081     2.27247     0.52229
H     -2.63060     1.77221     1.32218
O     -1.27103     3.01534     1.04470
H     -0.96250     3.45668     0.23186
O     -2.65203    -0.65029     2.25715
H     -3.13716    -1.06551     2.97728
O     -2.48373     0.68046     2.71846
H     -1.52972     0.67282     2.97763
O      1.84390     0.41448    -2.20520
H      2.51844    -0.29772    -2.14648
O      1.95471     0.94746    -0.88065
H      1.70485     1.87493    -1.03873
O      2.93433    -2.76245    -1.97013
H      1.98197    -2.57268    -1.94130
O      3.48878    -1.53507    -1.48889
H      3.28902    -1.58197    -0.54142
O     -1.42933     0.39967    -1.19549
H     -1.79796     1.13464    -0.65346
O     -0.73347     1.09642    -2.23515
H      0.13874     0.64484    -2.23084
O      1.22381    -1.60767     2.18899
H      0.44834    -2.15302     1.95549
O      1.77449    -1.36936     0.89235
H      1.50586    -0.45248     0.69613
O      0.29936    -2.13023    -1.52390
H      0.33675    -2.21269    -0.55420
O     -1.11002    -2.18644    -1.75268
H     -1.34136    -1.24090    -1.65836
