 36
-1364.9657490524137
O      0.20983     2.10539     0.24808
H     -0.21121     2.93783    -0.00881
O      0.64500     2.35831     1.59051
H      1.27370     1.61945     1.68103
O     -1.14257     0.02220     2.43468
H     -1.45200     0.94314     2.40763
O     -2.34491    -0.69142     2.10581
H     -1.97423    -1.47857     1.67775
O      1.23265    -2.06779    -1.07597
H      1.08455    -1.81692    -0.13185
O      0.41642    -3.22431    -1.26753
H      1.03137    -3.94218    -1.08937
O     -0.68033    -0.08023    -1.96470
H      0.00551    -0.76618    -1.98536
O     -1.03278    -0.06587    -0.58096
H     -0.48799     0.68585    -0.26452
O      1.03791    -1.01505     1.33350
H      0.24769    -0.56037     1.72308
O      2.00920     0.03111     1.32969
H      2.20429     0.15399     0.37902
O     -2.74096     2.28181     1.67447
H     -3.59363     1.99711     2.02025
O     -2.93208     2.18694     0.26149
H     -2.60264     1.29743     0.06379
O      1.18228     2.63361    -2.51156
H      1.46341     2.82615    -3.41302
O     -0.23146     2.48976    -2.65647
H     -0.35173     1.53858    -2.45620
O     -0.04088    -3.87592     1.72150
H      0.35068    -3.12608     2.18796
O     -1.11416    -3.23243     1.02301
H     -0.78214    -3.22619     0.10743
O      3.06661     0.07954    -2.36395
H      2.74753    -0.82413    -2.25930
O      2.43887     0.66444    -1.22753
H      1.95304     1.42276    -1.62464
