 40
-1516.6495715894625
O      1.34730     2.68589    -0.51958
H      0.71189     2.89066     0.19569
O      0.56862     2.91149    -1.69745
H      0.77783     2.10916    -2.21837
O      2.24452    -2.32541     2.01868
H      1.33727    -2.68942     2.02775
O      2.40412    -1.86444     3.35255
H      1.86905    -1.05878     3.35957
O     -2.35692     1.96357    -1.89128
H     -3.09686     2.31984    -2.39002
O     -1.98941     3.07198    -1.07297
H     -1.06419     3.20577    -1.37934
O     -0.30788     2.83611     1.64131
H      0.14479     2.19311     2.22013
O     -1.51256     2.08208     1.43130
H     -1.81510     2.43781     0.57581
O      0.47981     0.49515     2.60739
H      0.85173     0.17379     1.75982
O     -0.78053    -0.17572     2.68336
H     -1.35390     0.42146     2.16563
O     -0.40256    -2.74221     1.91539
H     -0.70691    -1.87400     2.24997
O     -1.25805    -2.93353     0.78734
H     -0.62553    -3.02119     0.03991
O     -2.68069    -0.74950     0.20332
H     -2.27330    -1.60337     0.45591
O     -1.59636    -0.25960    -0.58641
H     -1.99386     0.51668    -1.03405
O      1.41803     0.64485    -2.86327
H      2.24795     0.57279    -3.34988
O      0.45696     0.13479    -3.78818
H      0.22943    -0.71667    -3.36728
O     -0.45595    -1.97135    -2.22605
H     -0.95967    -1.40359    -1.59399
O      0.36731    -2.72471    -1.33706
H      1.10648    -2.11639    -1.14013
O      1.61818    -0.08234     0.31166
H      1.81979     0.70655    -0.22120
O      2.34524    -1.11336    -0.34535
H      2.60106    -1.62771     0.44624
