 28
-1061.6413851723967
O      0.99769    -0.08542    -1.92144
H      1.16283    -0.90806    -1.43339
O      1.60045     0.86852    -1.02930
H      0.83185     1.10983    -0.46980
O      0.70069    -1.54802     2.05792
H      0.14360    -1.63634     1.25089
O      1.40911    -0.32044     1.83146
H      2.23783    -0.64091     1.44438
O     -1.10323     0.57057     2.76364
H     -0.35817    -0.00668     3.00297
O     -2.23257    -0.18514     3.19430
H     -0.84439     1.15901     1.18878
O     -0.99863     1.59377    -2.94505
H     -0.14042     1.14992    -2.82766
O     -0.60958     2.92822    -3.24981
H     -0.91317     3.00229    -4.15800
O     -2.12938    -2.20009     0.67277
H     -2.16921    -1.71971     1.50867
O     -1.02873    -1.57009     0.02160
H     -1.38478    -0.67978    -0.21090
O     -1.79867     0.95861    -0.41026
H     -1.66125     1.33121    -1.30099
O     -0.64878     1.46153     0.28213
H     -2.61186     0.41009     3.84405
O      3.44947    -0.83401    -0.16408
H      3.01040    -0.04648    -0.54048
O      2.65000    -1.86348    -0.76033
H      3.23409    -2.20534    -1.44482
