 36
-1364.9777687562128
O      0.16289     2.49101     0.70058
H     -0.55816     3.10188     0.92176
O      1.34001     3.28204     0.91636
H      1.83474     2.63800     1.44473
O     -1.43203     0.23212     1.03850
H     -2.09036     0.95342     1.07769
O     -1.93159    -0.71680     1.97233
H     -1.29857    -1.44308     1.81170
O      0.45123    -3.82070    -0.80743
H      0.03718    -3.13826    -1.36406
O      1.80747    -3.36255    -0.76669
H      1.86381    -3.12248     0.17817
O     -1.65070    -0.67805    -1.42643
H     -1.59857    -0.51044    -0.45453
O     -0.50700    -1.48840    -1.70085
H      0.25055    -0.94733    -1.39177
O      1.20908     0.04689     1.92099
H      0.45525     0.63307     1.73610
O      2.33502     0.81293     1.48984
H      2.38587     0.57305     0.55197
O     -2.42091     3.32300    -0.07851
H     -2.13726     2.84200    -0.89068
O     -3.08469     2.30034     0.65627
H     -4.01422     2.49098     0.49931
O      0.04445     2.01282    -1.94361
H      0.11866     2.18984    -0.98385
O     -1.37527     1.89315    -2.09332
H     -1.51272     0.92113    -2.01410
O      1.11956    -2.61590     1.66784
H      1.13546    -1.65379     1.84120
O     -0.29032    -2.85452     1.57101
H     -0.30829    -3.37893     0.74856
O      2.71990    -0.96022    -1.97639
H      2.42509    -1.84994    -1.72190
O      1.74218    -0.17696    -1.29332
H      1.45845     0.47124    -1.96336
