 40
-1516.6523786479938
O      2.85970     1.93610    -1.36145
H      3.52215     2.55657    -1.67909
O      2.60916     2.41562    -0.04993
H      2.97195     1.67999     0.49574
O      3.23914     0.21687     1.30724
H      3.28867    -0.50184     0.63960
O      2.08770    -0.18260     2.05667
H      1.59130     0.64748     2.12666
O      0.21937     2.09412     1.88874
H     -0.61172     1.58854     1.98923
O     -0.00301     2.76911     0.64379
H      0.87693     2.67287     0.23390
O     -0.88816    -0.55627     1.34402
H     -0.57252    -0.14427     0.50622
O     -1.81629     0.38787     1.86017
H     -2.63344     0.18805     1.35823
O     -4.13304     0.32316     0.43235
H     -4.06459     1.28436     0.34479
O     -3.87265    -0.04070    -0.92285
H     -3.39474    -0.88752    -0.81334
O      3.09840    -1.45481    -0.78953
H      2.41781    -2.14970    -0.64940
O      2.48164    -0.68159    -1.82404
H      2.67284     0.23966    -1.55996
O     -2.17335     1.86790    -1.65426
H     -2.84416     1.16143    -1.69311
O     -2.45322     2.35586    -0.33125
H     -1.55398     2.55689     0.00521
O     -2.21505    -2.11740    -0.82981
H     -1.40991    -1.72524    -1.22404
O     -1.69814    -2.83754     0.28857
H     -1.49559    -2.09994     0.89566
O      1.05058    -3.01352    -0.10893
H      0.12113    -3.31254    -0.04164
O      1.51470    -3.08203     1.23273
H      1.47154    -2.15243     1.50249
O     -0.05043     0.36225    -1.02753
H     -0.66923     1.00442    -1.44909
O     -0.14269    -0.78614    -1.88190
H      0.82298    -0.95478    -1.97703
