 32
-1213.309760545433
O      2.70774     0.91303     2.55294
H      3.58324     1.22222     2.79834
O      2.50304     1.61067     1.32867
H      1.56519     1.86643     1.44340
O     -0.81815    -1.12527    -0.55704
H     -0.02258    -0.74344    -0.98043
O     -1.67382    -1.34913    -1.66402
H     -1.77886    -0.42930    -1.98170
O     -1.50395     1.29734    -1.91443
H     -0.55621     1.43594    -1.78060
O     -2.05150     1.91201    -0.74234
H     -2.69843     1.22632    -0.47135
O     -0.11471     1.94792     1.11997
H     -0.84131     2.04941     0.46593
O     -0.72506     1.14697     2.13432
H     -0.26325     0.28927     2.03043
O      1.38301     0.82371    -1.31837
H      1.96190     1.04754    -0.56656
O      2.29916     0.57037    -2.38461
H      2.22151    -0.39315    -2.44530
O      1.55847    -2.96623    -0.91635
H      1.67998    -2.26515    -0.25853
O      1.10345    -2.20065    -2.04272
H      0.29424    -2.66802    -2.28716
O      0.40219    -1.31275     1.78812
H     -0.15827    -1.48661     1.00478
O      1.68648    -1.13383     1.16637
H      2.09962    -0.48707     1.77205
O     -3.37079    -0.24290     1.56979
H     -2.69710     0.42247     1.76709
O     -3.49377    -0.13741     0.15225
H     -3.00988    -0.91716    -0.16247
