 32
-1213.3082546693665
O      4.08001    -0.52088     0.15407
H      3.44667    -0.78888    -0.53716
O      4.22128     0.86251    -0.19594
H      5.14445     0.89539    -0.46629
O     -0.33687    -1.31133    -1.80541
H     -1.00601    -0.61291    -1.93167
O     -0.63063    -1.81236    -0.49645
H      0.07386    -1.41145     0.05088
O     -1.90841     0.95130    -2.05590
H     -1.65731     1.32895    -1.18310
O     -3.27505     0.63969    -1.80815
H     -3.74054     1.29849    -2.33174
O      0.44106     1.78061     0.21597
H      0.59769     1.63621    -0.72900
O     -0.98263     1.64004     0.31292
H     -1.07785     1.19197     1.19497
O      2.01516     0.86936    -2.06871
H      2.77217     1.20742    -1.56961
O      2.18012    -0.52586    -1.79271
H      1.25912    -0.86112    -1.88221
O      1.26854    -0.57398     1.03858
H      1.14475     0.36270     0.76819
O      2.08295    -0.42885     2.19417
H      2.95098    -0.61857     1.80997
O     -1.80232    -0.57947     2.93157
H     -2.43754    -0.43962     2.20216
O     -0.87438     0.48394     2.66340
H     -0.02059     0.02860     2.71064
O     -3.27438    -0.22985     0.72729
H     -3.39077     0.10440    -0.18447
O     -3.41919    -1.63140     0.55237
H     -2.50710    -1.88837     0.34954
