 32
-1213.3142192645034
O      3.62473    -0.65651     0.43749
H      3.24404    -1.23184    -0.23992
O      2.52665     0.21788     0.68804
H      2.17437    -0.10428     1.53936
O      0.27688    -1.70075     0.29958
H      1.02235    -1.68418    -0.33833
O     -0.80370    -1.66801    -0.64161
H     -0.95341    -0.71078    -0.78128
O     -0.75734     1.89498    -0.51871
H      0.10280     2.03191    -0.95497
O     -1.31858     0.87770    -1.34939
H     -2.27579     1.05405    -1.22431
O     -0.97613     1.50825     2.11221
H     -0.90391     1.55598     1.13737
O     -2.12573     0.68163     2.30485
H     -1.68041    -0.13014     2.62780
O      1.81242     1.83984    -1.36579
H      2.18995     1.26295    -0.66965
O      1.97746     1.02536    -2.52174
H      2.64089     1.50790    -3.02520
O      1.73517    -1.54170    -1.84377
H      1.78074    -0.61522    -2.15846
O      0.78507    -2.11153    -2.74350
H      0.00201    -2.13271    -2.16575
O     -0.28453    -1.11287     2.82578
H     -0.10526    -1.46305     1.93046
O      0.81543    -0.20322     2.97432
H      0.33669     0.62942     2.79644
O     -3.85648     1.10491    -0.60830
H     -4.71710     0.90642    -0.98751
O     -3.58115    -0.09617     0.11251
H     -3.18290     0.27374     0.92042
