 36
-1364.976692405965
O      3.01818     0.93151    -0.47485
H      2.68051     0.84984     0.44898
O      2.92714     2.33854    -0.73899
H      2.03672     2.39535    -1.11628
O     -0.60616    -2.33003     2.79208
H     -0.39974    -3.15788     3.23452
O      0.02220    -1.35687     3.62502
H      0.80128    -1.13716     3.06334
O     -2.56988    -1.27351     1.32776
H     -1.84575    -1.69124     1.83111
O     -2.45388    -1.92218     0.05438
H     -2.98232    -1.32670    -0.49941
O      0.02133    -1.14813    -0.44030
H     -0.88881    -1.53672    -0.33884
O      0.80499    -2.26302    -0.88733
H      1.28153    -1.79953    -1.59101
O     -3.15407     1.37158    -0.63471
H     -3.82198     1.91913    -1.06038
O     -2.88117     0.39577    -1.64402
H     -2.03633     0.74841    -2.00833
O     -0.50153     1.36138    -2.40815
H      0.20251     0.70422    -2.53359
O     -0.02911     2.16204    -1.32911
H     -0.38573     1.70165    -0.54555
O      1.63699    -0.75150     1.62449
H      1.06552    -0.92108     0.83628
O      1.60643     0.67135     1.80453
H      0.65472     0.88169     1.69182
O     -1.32226     1.17247     2.77475
H     -1.03110     0.31473     3.12114
O     -1.01524     1.05365     1.39097
H     -1.83365     0.67882     1.01545
O      2.36987     0.27726    -3.71083
H      2.97416    -0.35419    -4.10952
O      1.99868    -0.41016    -2.52575
H      2.46085     0.11320    -1.82066
