 28
-1061.6399583073255
O     -2.04195    -2.39187    -1.21593
H     -1.09866    -2.52969    -1.00561
O     -2.55835    -2.40667     0.13540
H     -2.81397    -1.46770     0.20065
O     -0.07841    -2.19876     1.32929
H     -1.03339    -2.37368     1.27997
O      0.30105    -2.59433     0.00279
H      0.92917    -1.88704    -0.25132
O      1.06852     0.17988     2.03810
H      0.70865    -0.71532     1.88572
O     -0.07493     0.86204     2.56476
H      3.56860     0.04073    -0.90725
O      1.72333     2.67560     0.79336
H      1.93373     1.79401     1.13422
O      2.61210     2.74901    -0.32769
H      2.03649     3.13580    -0.99477
O     -2.53391     0.17488    -1.68982
H     -2.35439    -0.77835    -1.81409
O     -2.64883     0.21163    -0.25085
H     -1.73746     0.47882    -0.03278
O      1.80292    -0.58141    -0.95023
H      1.25357     0.21393    -0.81018
O      2.99622    -0.31520    -0.22114
H      0.34011     1.37935     3.25884
O     -0.22142     1.20084    -0.52602
H      0.01840     1.99516    -0.02075
O     -0.32693     1.69320    -1.87234
H     -1.19884     1.31274    -2.08252
