 24
-909.9804750154132
O     -2.93312    -1.36677    -0.00970
H     -3.24305    -0.88500     0.76481
O     -3.48872    -0.64001    -1.10684
H     -2.85579     0.10579    -1.18453
O     -0.64198    -1.63622    -1.23711
H     -1.47303    -1.65590    -0.70836
O      0.34138    -1.66488    -0.20315
H      1.04914    -1.12240    -0.59051
O      3.01408     0.90098    -0.66477
H      3.83139     0.65964    -1.10918
O      2.08330     0.05326    -1.32695
H      1.43098     0.69037    -1.66424
O     -1.57844     1.25718    -1.10262
H     -1.12487     1.23071    -0.23569
O     -0.53225     0.89172    -1.99979
H     -0.64021    -0.07637    -1.96771
O      2.23914    -0.07127     2.65819
H      1.30650    -0.31673     2.75238
O      2.09139     1.13611     1.90834
H      2.56165     0.92244     1.08906
O     -0.45314     1.11775     1.30452
H      0.47196     1.38366     1.49460
O     -0.44596    -0.19500     1.87753
H     -0.23550    -0.75099     1.09909
