 40
-1516.6376982213765
O      1.03605     0.34412     3.69012
H      1.58688     0.36097     4.47572
O      1.97213     0.75737     2.68781
H      1.44497     1.43098     2.20594
O      0.63527     0.48520    -2.78625
H      1.58420     0.43162    -2.59165
O      0.21443    -0.88870    -2.80648
H      0.77835    -1.31123    -2.12169
O     -1.54625     1.83959    -1.39495
H     -1.95243     0.96897    -1.16382
O     -1.74867     1.88699    -2.80078
H     -0.93989     1.43880    -3.09013
O     -0.46571    -1.47670     2.44273
H      0.08020    -0.99027     3.09046
O     -0.45515    -0.48916     1.40305
H      0.44395    -0.62158     1.01124
O     -3.18755     2.63967     0.96218
H     -2.94815     2.69733     0.02534
O     -2.08953     1.86844     1.44879
H     -2.49570     1.03484     1.72418
O      0.74577     1.70936    -0.11057
H     -0.06183     1.89585    -0.65299
O      0.49544     2.37651     1.13406
H     -0.45325     2.15962     1.27028
O      3.21749     1.77747    -0.97074
H      2.29944     1.82448    -0.61751
O      3.21127     0.41015    -1.40567
H      4.10867     0.29796    -1.73419
O     -1.43320    -4.05304     0.45090
H     -1.77334    -3.47171    -0.24328
O     -0.13925    -3.49212     0.65871
H     -0.28269    -2.91728     1.43807
O      1.80712    -1.15079     0.24590
H      2.40359    -0.50977    -0.19351
O      1.56295    -2.07026    -0.82778
H      0.96547    -2.70923    -0.37566
O     -1.94692    -1.65800    -1.36828
H     -1.28252    -1.29620    -1.98932
O     -2.23725    -0.53102    -0.53673
H     -1.58644    -0.62570     0.20220
