 20
-758.3040429463408
O     -2.64139    -2.29588     0.07539
H     -2.52823    -1.34089    -0.05183
O     -1.27783    -2.68270     0.25536
H     -1.11028    -3.26663    -0.49152
O      1.43832     0.75523    -1.16825
H      1.45786     1.45017    -0.48037
O      2.81844     0.40278    -1.24034
H      2.85700     0.06573    -2.13960
O      1.25559     2.42260     0.90597
H      1.08708     3.36031     1.03561
O      0.02967     1.85538     1.37607
H      0.30400     0.91687     1.45435
O      0.30804    -0.75735     1.13067
H     -0.31846    -1.45890     0.83729
O      1.57742    -1.38818     0.89575
H      1.84533    -0.93265     0.08524
O     -1.53230     0.85182    -1.33685
H     -0.61567     0.56495    -1.21245
O     -2.08929     0.60205    -0.04562
H     -1.61869     1.24917     0.50129
