 36
-1364.9817415025398
O      1.26316     2.68035    -0.62257
H      1.71280     1.83598    -0.82814
O      1.25609     2.62303     0.80364
H      0.37542     2.22849     0.97888
O     -1.04741     3.29030    -2.23275
H     -0.22877     3.33708    -1.71881
O     -0.54218     2.68541    -3.42239
H     -1.08835     3.09053    -4.10117
O     -1.00273    -2.19067     1.07918
H     -1.93769    -1.91899     0.96665
O     -0.60040    -1.33402     2.15611
H      0.33909    -1.58411     2.24742
O      2.04155    -1.76302     2.36930
H      2.42601    -0.97908     1.92021
O      2.71177    -2.81492     1.68856
H      2.84214    -3.43995     2.40557
O     -4.23088    -0.73431     1.65817
H     -5.08504    -0.92601     1.26311
O     -3.36867    -0.98104     0.55267
H     -2.96249    -0.09595     0.40740
O     -0.92592     1.21669     1.35139
H     -0.88206     0.28839     1.66910
O     -1.76839     1.12845     0.19770
H     -1.13122     0.92784    -0.52270
O      2.49720     0.38179    -0.37255
H      1.85052    -0.35231    -0.46351
O      2.72139     0.45538     1.03935
H      2.31521     1.33273     1.21393
O     -0.32086     0.49617    -1.95170
H     -0.41097     1.17572    -2.65292
O     -0.96907    -0.63396    -2.55028
H     -0.24240    -1.26636    -2.48338
O      0.84664    -1.65787    -0.73068
H      0.06320    -1.82962    -0.16209
O      1.46833    -2.93346    -0.77995
H      1.89172    -2.95424     0.09089
