 28
-1061.6434234355718
O      0.28526    -1.35449    -2.17669
H      0.38087    -0.38169    -2.26076
O     -1.08668    -1.50265    -2.54195
H     -1.04698    -2.25912    -3.13245
O      0.26113     1.31077    -2.13019
H     -0.67759     1.51605    -1.94326
O      0.83987     1.80386    -0.91165
H      1.44505     1.07170    -0.67873
O     -2.38407    -0.44121     0.48832
H     -1.97554    -0.16268     1.33166
O     -1.50510    -1.49714     0.09209
H      0.03197    -1.89286     0.62927
O     -1.40642     2.63076     0.25503
H     -0.46659     2.51631     0.02219
O     -1.98738     1.88271    -0.82182
H     -2.21553     1.04542    -0.37466
O     -1.12015     0.95638     2.42339
H     -1.34524     1.78846     1.98118
O      0.25365     0.85088     2.01208
H      0.44881    -0.08306     2.19848
O      1.14679    -1.75289     2.14968
H      2.05603    -1.42710     2.10861
O      0.97601    -2.11498     0.77411
H     -1.52344    -1.44791    -0.88557
O      3.08943    -0.10327     0.89605
H      4.02345    -0.17806     0.67499
O      2.50150    -0.29212    -0.39465
H      1.96747    -1.09674    -0.22117
