 40
-1516.6373685801552
O      3.76344     0.07453     1.24864
H      4.36393    -0.13343     0.52016
O      2.61405     0.48528     0.51208
H      2.15455    -0.35769     0.33419
O      0.39393     2.62477     1.31487
H      0.79553     3.42235     1.67098
O      0.87278     1.61350     2.20506
H      1.59252     1.19720     1.66687
O     -0.49069     1.36864    -1.62109
H     -0.94437     0.61361    -2.05209
O     -1.30549     1.55631    -0.45786
H     -0.68785     2.01172     0.15848
O     -1.27203    -0.76545     2.96211
H     -1.85435    -0.84209     2.18419
O     -1.44851     0.61185     3.30813
H     -0.56925     0.96827     3.09732
O     -3.44176     2.42206     1.82174
H     -3.04377     1.66529     2.27540
O     -3.95182     1.83697     0.62238
H     -3.30113     2.15036    -0.01925
O      3.82497    -2.14504    -1.26082
H      4.38368    -2.73164    -1.78275
O      4.53439    -0.90580    -1.35422
H      3.88531    -0.37178    -1.83817
O     -2.41861    -0.60673     0.53133
H     -1.91506     0.15205     0.15936
O     -3.53657    -0.64521    -0.35481
H     -4.03676     0.10652     0.01334
O      0.44858    -1.40588    -0.07900
H     -0.29954    -1.81633    -0.56317
O      0.60977    -2.21450     1.08806
H      0.14019    -1.67629     1.74501
O     -1.59570    -1.93294    -1.80788
H     -2.42240    -1.53353    -1.48453
O     -1.14896    -0.97371    -2.77006
H     -0.22921    -1.27960    -2.90877
O      1.51829    -1.35000    -2.82722
H      2.00838    -1.85612    -2.15870
O      2.00190    -0.02209    -2.59497
H      1.28555     0.38759    -2.08206
