 36
-1364.9751204546574
O     -1.40752     0.54800     1.76723
H     -1.56656    -0.09877     2.48832
O     -1.09705     1.73553     2.50137
H     -0.55235     2.17947     1.83115
O     -1.57872    -1.23231     3.74069
H     -1.45049    -1.04342     4.67593
O     -0.55794    -2.19449     3.47034
H      0.14241    -1.62074     3.08480
O      1.51326     1.49438     0.38825
H      2.24705     1.85699     0.89219
O      0.54756     2.54039     0.44596
H      0.60774     2.89322    -0.48101
O      1.07740    -2.27819    -3.23213
H      0.81917    -1.40678    -3.56362
O      1.01105    -2.05920    -1.81756
H      1.83918    -1.59258    -1.61602
O      0.64200     3.21927    -2.10228
H      0.76115     2.40084    -2.63836
O     -0.72030     3.57241    -2.32739
H     -1.19287     2.83245    -1.91728
O     -1.97225     1.17637    -0.71778
H     -1.86161     1.10075     0.25654
O     -1.22265     0.03983    -1.14630
H     -1.67451    -0.71621    -0.73145
O      1.15690    -0.73287     2.13383
H      0.68937    -0.05385     1.61494
O      1.82380    -1.51942     1.14935
H      1.21975    -2.27363     1.03548
O      1.91477     0.57814    -2.08575
H      1.65861     0.85467    -1.18667
O      0.71031     0.66979    -2.84481
H      0.02739     0.33197    -2.22459
O     -0.53854    -3.31761     0.74533
H     -0.96317    -3.01744     1.55967
O     -1.36737    -2.71650    -0.25494
H     -0.73798    -2.74966    -0.99011
