 32
-1213.3095005808846
O     -0.22981    -1.01637     2.51817
H     -0.10513    -1.41489     1.62558
O      0.63043    -1.78540     3.34675
H      1.39144    -1.19527     3.40158
O     -0.29344    -1.93228     0.02469
H      0.30107    -1.64180    -0.70142
O     -1.57860    -1.81038    -0.60011
H     -2.14574    -1.61686     0.17905
O     -1.76736     0.34784    -2.22108
H     -1.66446    -0.49226    -1.73314
O     -0.83612     0.18781    -3.30222
H     -0.53574     1.10188    -3.41071
O      0.27023     1.63238     1.50250
H     -0.16145     1.03210     2.13252
O     -0.31047     1.09755     0.31178
H     -0.08348     1.75115    -0.38642
O      0.95938     2.37071    -2.70421
H      1.41954     1.61834    -2.27801
O      0.29924     2.91995    -1.56447
H      0.76383     3.75119    -1.42774
O      1.88433     0.17390    -1.51415
H      2.12689    -0.14940    -0.62174
O      1.17361    -0.96556    -2.01728
H      0.50023    -0.55148    -2.60785
O      2.59553     0.17894     1.84738
H      1.84537     0.75626     1.60870
O      2.46464    -0.84397     0.85651
H      3.04487    -1.54453     1.17468
O     -2.88488     0.40557     1.59139
H     -2.25092     0.60115     0.88751
O     -2.90489    -1.02299     1.57613
H     -2.32063    -1.23264     2.31928
