 36
-1364.9737016376832
O     -0.52383     0.90059     3.22290
H     -1.47081     0.90487     2.98023
O     -0.20377     2.28487     3.31809
H     -0.31716     2.57335     2.40154
O     -3.19342    -0.03613     1.32328
H     -3.67381    -0.64233     1.89551
O     -3.02289     1.09568     2.17075
H     -2.93694     1.80051     1.50363
O      1.56966     0.49742     1.64984
H      0.88134     0.55683     2.35468
O      1.73710    -0.91579     1.51451
H      2.39071    -0.94987     0.78773
O      0.02388     1.43703    -1.37253
H     -0.19904     0.67977    -1.95794
O      1.32356     1.04731    -0.93118
H      1.22095     0.92003     0.04161
O     -0.61433    -1.97611     0.71096
H      0.25236    -1.66976     1.05138
O     -0.99098    -0.83829    -0.07868
H     -1.70917    -0.46976     0.45565
O     -2.37140     2.93648     0.28080
H     -2.60874     3.84410     0.07012
O     -0.96474     3.05717     0.49688
H     -0.61359     2.51718    -0.25031
O      0.62065    -0.69803    -4.03519
H      0.05382    -0.74513    -4.80804
O     -0.35557    -0.66751    -3.00328
H     -0.26483    -1.56553    -2.59864
O      1.25631    -3.46594    -1.53463
H      1.76671    -2.66126    -1.71471
O     -0.08124    -2.97677    -1.69155
H     -0.35081    -2.81398    -0.76175
O      2.63770    -1.09322    -1.72572
H      2.06999    -0.30332    -1.57137
O      3.42469    -1.06962    -0.53944
H      4.24043    -0.64870    -0.82847
