 36
-1364.9798509348013
O      2.94861     0.13729    -0.04670
H      2.85698     1.04834     0.30382
O      2.90768     0.36755    -1.45626
H      2.26789    -0.31649    -1.73175
O     -3.26529    -1.40832    -1.16513
H     -3.33198    -1.03984    -2.05056
O     -2.20763    -2.36111    -1.29011
H     -1.43808    -1.76835    -1.46456
O     -1.42111    -2.96159     1.57505
H     -1.90905    -2.12244     1.67777
O     -2.41069    -3.84033     1.03555
H     -2.39078    -3.56333     0.10838
O      0.93301    -1.38776    -2.02025
H      0.88328    -1.92325    -1.19579
O     -0.31076    -0.68812    -1.94254
H     -0.04396     0.21796    -1.66526
O     -1.08700     0.24912     0.79685
H     -0.38397    -0.40888     1.00086
O     -2.28421    -0.44256     1.15880
H     -2.64711    -0.63831     0.27281
O     -0.31203     2.73331     1.36612
H     -0.73339     1.87212     1.13435
O     -1.22933     3.68254     0.82623
H     -1.53787     4.12000     1.62423
O     -0.16465     2.82787    -2.01218
H     -0.46733     3.35040    -1.25994
O      0.50673     1.78098    -1.30849
H      1.44357     1.91210    -1.53478
O      2.37336     2.58212     0.91582
H      1.42126     2.74052     1.07079
O      2.78024     2.11151     2.19959
H      3.65453     2.50421     2.25470
O      1.04334    -1.33827     1.11799
H      1.82865    -0.93671     0.68652
O      0.85695    -2.53423     0.34845
H      0.01845    -2.85075     0.75903
