 36
-1364.9723337184894
O     -0.29647     1.53880    -1.30384
H     -1.15889     1.10712    -1.09479
O      0.00196     1.05076    -2.61855
H      0.93431     0.80869    -2.45603
O     -2.67600     0.57237    -0.43621
H     -2.75212     1.08778     0.39385
O     -2.49123    -0.72537     0.14737
H     -1.95388    -1.17583    -0.53205
O      0.13174     3.67257     2.03572
H      0.74318     3.53194     1.29551
O      0.03697     2.33681     2.53664
H      0.32251     2.43682     3.45203
O      1.04793    -1.65198     1.29984
H      1.71161    -1.56167     0.59305
O      0.34167    -0.42643     1.07282
H     -0.23964    -0.35517     1.84636
O     -2.38389     1.33994     2.06776
H     -1.51197     1.77028     2.16302
O     -2.11302     0.05177     2.63801
H     -2.37473    -0.49204     1.87314
O     -0.12255    -1.77065    -2.46335
H     -0.42675    -0.91471    -2.80380
O     -1.27142    -2.19611    -1.72735
H     -0.91225    -2.94115    -1.20913
O      1.55277     3.18674    -0.31044
H      0.93445     2.55406    -0.74327
O      2.68885     2.36617    -0.07531
H      3.38495     2.91279    -0.44968
O      0.90687    -4.57937    -0.07002
H      0.73579    -5.36553     0.45626
O     -0.22999    -3.78478     0.25591
H      0.18055    -3.04784     0.75888
O      2.35311     0.20841    -1.70524
H      2.49473     0.76719    -0.92328
O      2.12071    -1.07398    -1.13263
H      1.31947    -1.36210    -1.60972
