 40
-1516.6462366272372
O      2.77139    -0.39455    -1.40062
H      2.13223     0.31931    -1.60225
O      2.67529    -1.22094    -2.55907
H      1.71304    -1.36096    -2.58151
O     -1.30757    -1.04421     0.40841
H     -1.82529    -0.20986     0.36395
O     -2.25042    -2.05611     0.05661
H     -1.70271    -2.48212    -0.62489
O     -0.63364     2.90300     1.96392
H      0.14518     2.35198     2.20164
O     -1.23944     3.12948     3.23569
H     -1.25152     4.09050     3.24782
O      1.47982     0.67895     1.12014
H      1.96601    -0.18034     1.18824
O      1.18583     0.99700     2.48275
H      0.67630     0.20691     2.73917
O     -2.17761     2.21275    -0.69085
H     -1.20266     2.34074    -0.70389
O     -2.34738     1.44640     0.50840
H     -1.88030     2.01254     1.15930
O      0.46138     2.21481    -0.80210
H      0.86667     1.70310    -0.06842
O      0.85624     1.40130    -1.90268
H      0.08269     1.44274    -2.49380
O     -2.31333     0.48535    -2.76285
H     -2.53145     1.09223    -2.02292
O     -1.38206     1.29120    -3.48536
H     -1.87977     1.53908    -4.27112
O      2.41369    -1.79677     1.43685
H      1.80302    -2.32476     1.98267
O      2.26800    -2.43568     0.15835
H      2.66250    -1.74467    -0.42604
O     -0.21655    -2.63499    -1.58270
H      0.50547    -2.57259    -0.93576
O     -0.02736    -1.43552    -2.33637
H     -0.85043    -0.94895    -2.16998
O      0.32241    -2.74355     2.82393
H      0.10732    -2.94261     3.73856
O     -0.11936    -1.39453     2.73519
H     -0.56637    -1.39494     1.85239
