 32
-1213.305177282985
O      0.72145     1.30059    -1.24988
H      1.15130     0.43858    -1.44433
O     -0.65425     1.02856    -1.53293
H     -1.09320     1.54579    -0.82395
O     -1.43231    -1.27932     0.08823
H     -1.32732    -1.52422    -0.85772
O     -0.59713    -2.25896     0.72147
H      0.26565    -1.80665     0.69779
O     -0.57567    -0.95620    -3.30220
H     -0.69537    -0.18585    -2.70857
O     -1.12900    -1.98136    -2.47190
H     -1.79553    -2.37468    -3.04332
O     -1.59908     2.56246     0.40106
H     -1.48282     3.50400     0.56762
O     -3.00830     2.37822     0.55979
H     -3.00041     1.68470     1.23870
O      1.60190    -2.28195    -1.04628
H      0.89270    -2.44995    -1.67711
O      2.06103    -1.00685    -1.50074
H      2.69963    -0.78889    -0.79018
O      3.35918    -0.09639     0.68349
H      2.68701     0.46131     1.13008
O      4.32036     0.86122     0.24045
H      5.08760     0.58082     0.74631
O      0.69422     0.02938     1.80575
H     -0.17773     0.22613     2.19184
O      1.17078     1.31506     1.41795
H      0.87438     1.38699     0.48663
O     -2.75097     0.02681     2.01794
H     -2.28029    -0.50990     1.33869
O     -1.72326     0.21536     2.99013
H     -1.95965    -0.42509     3.66908
