 24
-909.9825604646895
O     -0.65438     1.26942     1.36477
H     -0.57961     0.32588     1.61337
O     -1.72670     1.26138     0.41269
H     -1.34096     1.82205    -0.28110
O      0.91564    -1.03001    -2.07406
H      1.59003    -0.68240    -1.46951
O     -0.11325    -0.04770    -1.90363
H     -0.86480    -0.59557    -1.60054
O      2.15188    -0.22914     1.00457
H      2.93380    -0.36101     1.55107
O      2.69615     0.13541    -0.26146
H      2.38341     1.06719    -0.29834
O     -2.64257    -1.27880     0.27641
H     -2.43783    -0.32803     0.22677
O     -1.96601    -1.75864    -0.89285
H     -1.26524    -2.28810    -0.48454
O      0.13092    -1.92821     0.88813
H      0.86936    -1.29847     0.78706
O     -0.53431    -1.35155     2.02694
H     -1.44937    -1.58622     1.80546
O      0.31197     2.42359    -1.07929
H      0.38920     1.53525    -1.47896
O      1.29098     2.36546    -0.03849
H      0.71789     2.09059     0.70185
