 40
-1516.6410277079565
O      2.94256     2.43985     0.22714
H      2.55469     1.66968     0.68897
O      2.30202     3.51137     0.91890
H      3.04570     4.08819     1.11655
O      2.10695    -0.77650     0.06740
H      1.92452    -0.18769    -0.69113
O      1.90769     0.13297     1.16322
H      1.27010    -0.36817     1.72337
O     -0.80515     3.24912    -0.34638
H     -1.36937     2.82887    -1.02974
O      0.47112     3.18458    -0.99066
H      1.07538     3.50310    -0.28912
O     -0.98617     1.37802     1.64558
H     -0.90182     2.05596     0.94339
O     -1.93931     0.46958     1.08578
H     -1.41874    -0.35174     1.10903
O     -2.66845     0.49502    -1.49122
H     -2.42619     0.56361    -0.54232
O     -1.95083     1.58803    -2.06678
H     -1.16574     1.11708    -2.39998
O      0.29349     0.31251    -2.66325
H      0.69013    -0.06369    -3.45629
O      1.41457     0.86437    -1.98001
H      1.04938     1.73266    -1.70745
O      0.12755    -0.12040     3.62291
H     -0.31215     0.60786     3.15618
O      0.02654    -1.08363     2.56551
H      0.09493    -1.94702     3.02211
O     -0.72973    -1.73683    -0.40926
H     -0.70991    -1.84612    -1.37859
O      0.27432    -2.66902    -0.00538
H      1.04058    -2.05683     0.09662
O     -0.63322    -3.90467     2.21417
H     -0.26743    -3.50506     1.39670
O      0.43156    -3.63102     3.13887
H      0.26598    -4.29467     3.81380
O     -1.96053    -1.37694    -3.64914
H     -2.34681    -0.94743    -2.86909
O     -1.02780    -2.25602    -3.02849
H     -1.37121    -3.12991    -3.24589
