 20
-758.3030012139337
O     -0.59082    -1.09898     1.92740
H     -0.55595    -2.04112     2.11039
O     -1.00652    -1.11494     0.55687
H     -1.73981    -0.45940     0.56545
O      2.14668     0.18838     2.10299
H      1.21285    -0.05790     2.08223
O      2.30669     0.78462     0.81285
H      2.62570     0.03843     0.28462
O      1.49436    -1.15422    -1.69150
H      1.56336    -1.96173    -2.21065
O      1.46028    -1.64636    -0.35130
H      0.53214    -1.45550    -0.10017
O      0.34938     1.86464    -1.17679
H      0.81763     1.48177    -0.41840
O     -0.37395     0.74370    -1.68977
H      0.33998     0.09217    -1.82872
O     -2.93211     0.74345     0.49570
H     -3.42903     1.53371     0.73442
O     -3.02810     0.73387    -0.93282
H     -2.10613     0.93396    -1.18184
