 28
-1061.6384304919272
O     -0.23725    -2.81918     0.47221
H      0.42471    -2.10978     0.56930
O     -1.36947    -2.27616     1.14465
H     -1.21057    -2.53344     2.06002
O      0.81295    -0.59625     1.91539
H      1.38814     0.16180     1.65603
O     -0.43561     0.06596     2.19005
H     -0.97644    -0.25649     1.45131
O      1.41096    -1.18711    -1.14215
H      0.89220    -1.56887    -1.87439
O      1.18637     0.21354    -1.35740
H     -0.53119    -3.03081    -3.22949
O     -1.15877     2.76471     1.17757
H     -0.75236     2.00056     1.62087
O     -0.02058     3.41554     0.61902
H      0.03774     4.21244     1.15344
O     -1.98870     1.54053    -1.27323
H     -2.11096     2.09201    -0.49193
O     -1.40212     0.39261    -0.65460
H     -1.78738    -0.35106    -1.15016
O     -1.48983    -2.20580    -1.83573
H     -1.04358    -2.57686    -1.04789
O     -0.43581    -2.17887    -2.79480
H      0.26510     0.34777    -1.04613
O      2.04130     1.65847     1.25765
H      1.50444     2.30995     0.77840
O      3.00886     1.25235     0.28574
H      2.44614     0.77602    -0.35948
