 16
-606.6377710664873
O     -1.27546    -0.95990     1.60059
H     -1.91597    -1.05576     2.31089
O     -1.71128     0.26231     0.99489
H     -0.95546     0.84450     1.17485
O      0.68965     1.97542     0.91966
H      0.96212     1.51873     0.09289
O      1.65375     1.44110     1.83914
H      2.30527     2.14863     1.86083
O      1.34429     0.34906    -1.11023
H      0.53100    -0.11104    -1.39143
O      2.08125    -0.70046    -0.46806
H      1.98723    -0.45893     0.46425
O     -1.18491    -0.52706    -1.71090
H     -1.60590    -0.47261    -0.83827
O     -1.36650    -1.90568    -2.04450
H     -1.94392    -1.83039    -2.80899
