 24
-909.977071405495
O     -0.28912     0.63485     1.55910
H     -1.13641     0.33038     1.91310
O      0.66393    -0.26352     2.13661
H      0.85006    -0.87956     1.39985
O      1.62867    -1.69526     0.03267
H      2.30924    -1.01893    -0.18577
O      0.67149    -1.44099    -1.00539
H     -0.16388    -1.73402    -0.59070
O      3.34097     0.94839     1.01965
H      2.58535     0.61232     1.52538
O      3.04890     0.52249    -0.30774
H      2.39231     1.18591    -0.60334
O     -2.36157     1.80115    -0.29538
H     -1.60643     1.45657    -0.81666
O     -3.07443     0.60215    -0.01212
H     -3.86208     0.68573    -0.56149
O     -1.72956    -1.64362     0.15332
H     -2.20272    -0.78180     0.09713
O     -2.21290    -2.27428    -1.03334
H     -2.32634    -3.17106    -0.71025
O     -0.07175     1.07769    -1.47103
H      0.31252     0.18847    -1.31591
O      0.81176     1.96226    -0.77890
H      0.46637     1.89791     0.12504
