 28
-1061.6423462768396
O      1.13145     0.31159    -1.91212
H      0.78845    -0.47969    -1.46050
O      1.83704     0.97648    -0.86041
H      1.09473     1.22150    -0.26819
O      0.62251    -1.54637     2.03232
H      0.25812    -1.67791     1.13180
O      1.54119    -0.45837     1.86249
H      2.30458    -0.89500     1.45145
O     -1.12105     0.32025     2.78619
H     -0.47059    -0.41553     2.80733
O     -2.36619    -0.37005     2.81111
H     -0.67052     1.15653     1.31731
O      0.01482     2.63186    -2.74387
H      0.40692     1.77223    -2.50427
O     -1.37761     2.27867    -2.68946
H     -1.78474     3.05493    -3.08368
O     -1.87007    -2.20977     0.19020
H     -2.12208    -1.79170     1.02285
O     -0.79129    -1.39260    -0.24689
H     -1.19239    -0.49142    -0.31183
O     -1.60407     1.11844    -0.30117
H     -1.50685     1.64786    -1.12441
O     -0.42659     1.47541     0.42871
H     -2.69632    -0.14130     3.68294
O      3.13167    -1.28739    -0.33917
H      2.86258    -0.37432    -0.56555
O      2.04631    -2.01670    -0.92587
H      2.42296    -2.29818    -1.76617
