 36
-1364.9782454313831
O      0.47401     2.99895    -0.34508
H      1.37518     2.62927    -0.47524
O      0.20340     2.68631     1.02691
H      0.59689     1.78812     1.11660
O      0.72480    -1.76374    -0.64909
H      0.79039    -1.62613    -1.61086
O     -0.58663    -2.31212    -0.51861
H     -1.10409    -1.53557    -0.24911
O     -2.01180    -0.67046     1.38279
H     -2.12307     0.28284     1.56101
O     -1.21992    -1.09001     2.49628
H     -1.23792    -2.05944     2.36717
O      1.22824     0.29225     0.99974
H      1.03199    -0.40377     0.32652
O      1.37148    -0.45317     2.20348
H      0.43340    -0.64940     2.39470
O     -2.37073     2.03443     1.38521
H     -1.49364     2.46690     1.29238
O     -2.82743     2.08313     0.03424
H     -3.71225     2.44891     0.13099
O     -0.71791     1.41134    -2.14028
H     -0.35898     2.05513    -1.48834
O     -1.23263     0.38779    -1.28494
H     -1.96218     0.86488    -0.85024
O      3.67740     0.91074    -0.43546
H      3.23956     0.64718     0.38490
O      2.62797     1.64047    -1.06611
H      2.40748     1.06431    -1.82442
O      0.78739    -0.48486    -3.22145
H      0.19659     0.24404    -2.92827
O      2.06587     0.14248    -3.18220
H      2.22542     0.36209    -4.10476
O     -1.00733    -3.76481     2.38088
H     -0.30750    -4.27041     2.80392
O     -1.13094    -4.41538     1.11527
H     -0.84019    -3.70113     0.51998
