 36
-1364.9737193140963
O      1.54261     3.20758    -1.48782
H      0.81764     2.81718    -1.99320
O      1.25500     2.68537    -0.19036
H      2.01857     2.10315    -0.03926
O     -1.90555    -1.39573    -1.20650
H     -1.00635    -1.64628    -0.90655
O     -2.61900    -1.10302    -0.01490
H     -2.00621    -0.52883     0.47390
O      0.69415    -1.79357    -0.78087
H      1.36077    -2.05525    -0.11512
O      1.32140    -0.67889    -1.42713
H      0.60871     0.00329    -1.43368
O     -0.55159     1.19624    -1.70769
H     -1.26173     1.59241    -1.15787
O     -1.30504     0.70070    -2.81013
H     -1.62264    -0.13475    -2.41860
O      3.48739     1.16791     0.05087
H      4.16630     1.58647    -0.48849
O      3.65029    -0.20686    -0.28419
H      2.85819    -0.35674    -0.84531
O     -0.50450     1.85419     1.67205
H     -0.06868     2.32823     0.93754
O     -0.46345     0.51521     1.18808
H      0.41739     0.18390     1.43731
O     -3.28099     2.62233     0.68595
H     -2.58057     2.42901     1.32695
O     -2.79217     1.91764    -0.46281
H     -3.42035     1.18852    -0.56680
O      1.37636    -1.52829     2.02014
H      0.64678    -2.17345     1.97721
O      2.37223    -2.21763     1.26278
H      3.01901    -1.51014     1.12848
O     -0.52978    -3.35648     1.45330
H     -0.47712    -4.30271     1.63483
O     -1.76855    -2.97356     2.04927
H     -2.27550    -2.72705     1.26249
