 32
-1213.3069635929592
O     -0.50297    -1.94096     1.17417
H     -0.73993    -1.80185     0.23230
O     -1.78241    -1.68552     1.78805
H     -1.71353    -0.71843     1.90288
O      0.44812    -2.57332    -2.08697
H     -0.51064    -2.54759    -1.95743
O      0.80405    -1.44901    -1.27487
H      1.48964    -1.80860    -0.69241
O     -3.13157    -1.87791    -0.50582
H     -2.91291    -1.96983     0.44033
O     -1.90065    -1.30466    -0.94797
H     -2.10715    -0.35304    -0.92424
O     -2.60496     1.26092    -0.96710
H     -3.20506     1.57837    -1.65020
O     -2.01585     2.46185    -0.48093
H     -1.07228     2.27429    -0.65968
O      4.05989     0.74136    -0.70475
H      4.96446     0.99683    -0.50316
O      3.41849     2.02031    -0.78936
H      2.61364     1.77728    -1.28416
O      0.54255     1.72273    -0.47143
H      0.84648     1.06882     0.19815
O      1.02503     1.19062    -1.70353
H      0.86045     0.23211    -1.60148
O     -1.38125     0.94406     1.86998
H     -1.69416     1.76050     1.44834
O     -0.79893     1.38450     3.09461
H      0.12762     1.16599     2.93017
O      2.47562    -0.82476     0.79646
H      2.98622    -0.13982     0.32177
O      1.38217    -0.07013     1.32673
H      0.70367    -0.77986     1.41926
