 32
-1213.3160164522703
O      0.86564    -2.75461     1.25315
H      0.19051    -2.73891     1.94311
O      1.56760    -1.54924     1.56890
H      2.20909    -1.50206     0.83438
O      3.11117    -0.59892    -0.46640
H      3.28382     0.27356    -0.06756
O      2.26087    -0.17091    -1.54057
H      1.40574    -0.60957    -1.33436
O     -3.20267     0.06989    -0.34493
H     -2.75496    -0.73651    -0.05528
O     -2.68871     0.20772    -1.66603
H     -2.14614     1.00912    -1.58547
O     -0.97535     2.35257    -1.73067
H     -1.22940     3.18216    -2.14770
O     -0.59400     2.78026    -0.42867
H      0.38586     2.79693    -0.52642
O      2.00643     2.35050    -0.83900
H      2.06093     1.53273    -1.37755
O      2.66363     1.91059     0.35222
H      1.90129     1.71136     0.92719
O     -0.80550    -1.64819    -2.12117
H     -1.57070    -1.03818    -2.07602
O     -0.12068    -1.21551    -0.94085
H     -0.14100    -1.99988    -0.36689
O     -2.38932    -2.16791     1.39395
H     -3.20308    -2.23351     1.90155
O     -1.49376    -1.60018     2.34493
H     -1.38904    -0.68635     2.00213
O      0.56963     0.95109     1.74047
H      0.83044     0.00734     1.68922
O     -0.83982     0.87365     1.52238
H     -0.97483     1.56586     0.84800
