 28
-1061.646806723127
O     -1.37856     1.49708    -0.60630
H     -1.04637     1.89605     0.21800
O     -1.91311     0.27918    -0.05515
H     -2.28125    -0.13776    -0.85336
O     -0.56324     1.77439     1.92191
H      0.40133     1.80515     2.04428
O     -0.87330     0.45986     2.40590
H     -1.32967     0.11901     1.61913
O      1.30247    -1.08714     2.63831
H      0.51923    -0.50740     2.70501
O      1.70321    -0.82953     1.29756
H     -1.37259    -1.40268    -2.37015
O      1.53870     0.43460    -1.29470
H      1.81635     1.13182    -0.66610
O      0.75355     1.15613    -2.23797
H     -0.08697     1.24689    -1.75311
O      0.19029    -1.78811    -1.66760
H      0.74775    -0.97842    -1.56185
O      0.04044    -2.19802    -0.30183
H     -0.87505    -2.49587    -0.27274
O     -2.94992    -2.34625    -2.00715
H     -3.46442    -2.53500    -2.79724
O     -2.31079    -1.12574    -2.38062
H      1.06333    -1.35109     0.77002
O      2.42571     2.20512     0.51162
H      3.31238     2.56346     0.61508
O      2.15472     1.68603     1.81251
H      2.20446     0.71495     1.64097
