 32
-1213.3122046678773
O      3.43811     1.17213     0.62217
H      2.73854     0.50158     0.66439
O      2.82308     2.18662    -0.17162
H      2.40788     2.77027     0.47889
O     -0.96406    -2.13389    -1.41077
H     -1.14152    -1.21474    -1.69414
O     -1.98113    -2.35658    -0.43501
H     -1.43995    -2.45357     0.37536
O     -0.98046     0.43266    -2.19294
H     -0.08241     0.59625    -2.53056
O     -0.84714     1.10091    -0.93511
H     -1.71943     0.92795    -0.52916
O      0.33060     2.09578     1.32668
H     -0.00302     1.92167     0.42842
O     -0.84528     1.82107     2.10325
H     -0.63873     0.95425     2.48383
O      1.63451     0.82090    -2.10614
H      2.15616     1.41305    -1.52243
O      2.63453    -0.02129    -2.67948
H      2.70002    -0.71884    -2.01262
O      1.48613    -1.95007    -0.41335
H      0.61266    -2.20133    -0.79426
O      1.14674    -0.75051     0.27742
H      0.77932    -0.17729    -0.42217
O     -1.18160    -1.00447     2.59726
H     -2.05587    -0.94725     2.17258
O     -0.56597    -2.02185     1.79308
H      0.18667    -1.54179     1.38575
O     -3.00726     0.79257     0.55009
H     -2.62805     1.21673     1.33457
O     -3.33292    -0.50208     1.04830
H     -3.08772    -1.07205     0.29936
