 40
-1516.6371069251395
O      1.30302     3.97063     0.50065
H      1.62133     4.86239     0.32518
O      2.50441     3.20566     0.49038
H      2.37224     2.64724    -0.29753
O      2.39373     1.16555    -1.36672
H      2.05089     0.78959    -2.21275
O      2.26181     0.02457    -0.50957
H      1.79233     0.43978     0.23887
O      0.20022     0.15855     2.31391
H     -0.61729    -0.05849     1.83180
O      0.79349     1.08733     1.40103
H      1.03704     1.82979     1.97416
O     -3.35712    -1.81141    -0.15897
H     -2.66140    -2.05241     0.49662
O     -2.77079    -2.33900    -1.34440
H     -3.33978    -3.08917    -1.53819
O     -0.88682     3.15042    -0.80383
H     -0.09340     3.38432    -0.29060
O     -0.37346     2.03863    -1.53847
H     -0.70357     1.29533    -0.99106
O      0.16194     0.80524    -3.88174
H     -0.01725     1.36599    -3.10734
O      1.19865    -0.04456    -3.38474
H      0.67768    -0.77381    -2.99738
O     -0.14557    -1.85575    -1.96158
H     -1.06888    -2.03402    -1.70514
O      0.55969    -2.07263    -0.73681
H      1.24484    -1.36427    -0.74704
O     -2.42474     1.74313     0.86486
H     -2.11362     2.46992     0.29492
O     -1.79124     0.65293     0.17791
H     -2.53893     0.07858    -0.05602
O      0.98508    -2.66183     3.72406
H      1.56815    -3.39281     3.94403
O      1.82992    -1.89735     2.85510
H      1.23897    -1.13773     2.70185
O     -1.02411    -3.27716     1.98373
H     -0.35558    -2.99022     2.62845
O     -1.17420    -2.06363     1.25155
H     -0.44549    -2.14407     0.59624
