 16
-606.6403066211901
O     -2.16735    -1.53613     1.00925
H     -2.85566    -1.67269     1.66696
O     -1.61528    -0.29574     1.45882
H     -1.76614     0.28017     0.67433
O      1.51344     0.51920     1.17984
H      2.11222     0.56410     0.42480
O      0.99526    -0.81615     1.01546
H      0.08456    -0.70099     1.35626
O      1.94760    -0.08477    -1.92594
H      2.25577    -0.61132    -2.66977
O      0.66533    -0.68390    -1.67953
H      0.78411    -0.96738    -0.75207
O     -1.37035     1.12339    -0.76590
H     -0.70051     0.69323    -1.32322
O     -0.65104     2.19102    -0.14405
H      0.02203     1.71916     0.36831
