 24
-909.9742803329093
O     -2.83189     1.81481    -0.29961
H     -2.55207     1.61496    -1.20872
O     -2.84555     0.48210     0.22417
H     -3.75991     0.37736     0.50173
O     -0.17132    -2.23502     0.36624
H     -0.24193    -1.46323     0.96412
O      0.65149    -1.69938    -0.68249
H      0.05105    -1.74100    -1.44540
O      0.94184     0.93645    -0.65227
H      0.90432    -0.04438    -0.58829
O      2.27450     1.13090    -1.11535
H      2.77322     0.79248    -0.35350
O     -1.44551     0.71507    -2.41221
H     -0.55859     0.92364    -2.07333
O     -1.56205    -0.68755    -2.15508
H     -2.08823    -0.68997    -1.34362
O      2.78272    -0.13996     1.48998
H      2.03975     0.11608     2.05792
O      2.85317    -1.55857     1.68168
H      2.48399    -1.88805     0.85148
O      0.12610     1.13901     2.13316
H      0.39903     1.43291     1.24862
O     -0.66794    -0.00084     1.81631
H     -1.41876     0.37682     1.32355
