 28
-1061.6380779191431
O      1.19538    -1.52490     0.03673
H      2.00571    -1.40190     0.55132
O      1.62927    -0.99176    -1.22056
H      1.04837    -1.47182    -1.84823
O     -0.31743     0.49919     1.43408
H     -0.35102    -0.21529     0.77014
O      0.11095    -0.16442     2.61746
H      1.05618     0.03636     2.59829
O      1.54839     1.92246     0.21181
H      0.79678     1.55920     0.72229
O      1.14306     1.61778    -1.13283
H      0.16134    -2.65191    -3.82016
O     -1.31339     0.01780    -1.16699
H     -0.74808     0.79226    -1.32780
O     -2.63282     0.56914    -1.28023
H     -2.95505     0.41172    -0.37401
O     -3.65475     0.18857     1.20447
H     -4.58731     0.31848     1.39425
O     -3.09041     1.41270     1.68839
H     -2.16942     1.12549     1.76191
O     -1.22013    -2.21302    -2.62029
H     -1.33004    -1.38401    -2.11083
O      0.09294    -1.96307    -3.15390
H      1.49799     0.71333    -1.23254
O      3.39505     0.12541     0.98321
H      2.87231     0.87215     0.61617
O      3.11361     0.24532     2.38058
H      3.84866     0.77722     2.70020
