 36
-1364.9723523871337
O     -1.51667     1.71826    -0.97808
H     -2.29010     1.27391    -0.59683
O     -1.20861     0.86316    -2.07390
H     -0.24826     0.96136    -2.12876
O     -3.40357     0.39829     0.63372
H     -2.98430     0.88450     1.36341
O     -3.06597    -0.92194     1.06747
H     -2.75160    -1.33747     0.24306
O      0.60991     3.88259     1.44709
H      1.09605     3.69372     0.62906
O      0.67080     2.59210     2.05412
H      1.23538     2.72976     2.82329
O      1.93316    -0.96666     0.53731
H      2.09567    -1.20981    -0.40095
O      1.02825     0.11957     0.30856
H      0.30754    -0.03022     0.96963
O     -1.51222     1.08563     2.34553
H     -0.78869     1.69890     2.11962
O     -0.82630    -0.17482     2.24379
H     -1.58908    -0.74446     2.01985
O     -0.99154    -1.78447    -1.89667
H     -1.29395    -0.85463    -1.94533
O     -1.74696    -2.29302    -0.80059
H     -1.04976    -2.67957    -0.23370
O      2.08075     2.31808    -0.66498
H      1.67719     1.55338    -0.19390
O      3.17881     1.65282    -1.28159
H      3.56381     2.36683    -1.79869
O      0.90885    -4.14952     0.54613
H      0.85851    -4.68879     1.34006
O      0.21850    -2.98027     0.98561
H      0.92964    -2.29724     0.93626
O      1.51767    -0.02266    -2.55745
H      2.25664     0.43612    -2.12175
O      1.66659    -1.35729    -2.06311
H      0.73613    -1.65469    -2.05708
