 28
-1061.6430105571865
O      0.35484    -0.18398    -1.55043
H      0.50836    -0.62691    -0.69254
O      1.39679     0.79649    -1.51051
H      1.14511     1.31590    -0.71403
O      0.45948    -2.12058     1.44085
H     -0.37714    -2.05000     0.95201
O      1.26274    -1.23393     0.66166
H      2.01921    -1.77057     0.33837
O      0.05198     0.23954     2.70402
H      0.20870    -0.70041     2.53213
O     -1.38029     0.31397     2.73530
H      0.66485     1.29475     1.44385
O     -1.85950     2.09023    -1.67167
H     -1.63581     2.64774    -2.42497
O     -2.00756     0.79930    -2.25638
H     -1.13042     0.40511    -2.05245
O     -3.33648    -0.76414    -0.32420
H     -3.07173    -0.23089    -1.08663
O     -2.05328    -1.02270     0.26730
H     -2.13593    -0.59654     1.13453
O     -0.89695     2.05943     0.81367
H     -1.18390     1.95836    -0.11450
O      0.52908     1.94462     0.72776
H     -1.48066     1.14057     2.23127
O      3.59072    -0.68198    -0.80829
H      2.84895    -0.22193    -1.24568
O      3.18334    -2.04461    -0.95309
H      4.02986    -2.49276    -1.00895
