 40
-1516.6416291837495
O      1.56632     0.77814    -1.66245
H      1.11361     0.71282    -0.80004
O      0.49274     0.66433    -2.59305
H     -0.03072    -0.10206    -2.25887
O     -0.74770     0.03148     2.51207
H     -0.56641     0.75011     1.86533
O     -0.30407    -1.11946     1.79106
H     -0.97490    -1.19650     1.07296
O      2.02129    -0.22483     0.95374
H      1.21580    -0.66336     1.30529
O      3.07124    -0.94662     1.59428
H      3.73259    -0.90998     0.89194
O     -1.69846     2.98103    -2.24898
H     -1.84322     3.88090    -2.55191
O     -0.35485     3.05491    -1.76907
H      0.05715     2.29894    -2.24073
O     -3.39671    -0.14029     2.95651
H     -2.42056    -0.13246     2.90056
O     -3.68722    -0.73808     1.68978
H     -4.47707    -1.25121     1.88948
O      1.09848     2.46449     1.24784
H      1.70926     1.72790     1.39728
O      0.01438     1.73211     0.66316
H     -0.39069     2.39078     0.07621
O     -2.95388     1.47769     0.44425
H     -3.38333     0.72654     0.90058
O     -3.00501     1.04298    -0.91558
H     -2.62319     1.80985    -1.37892
O     -1.69010    -1.19395    -0.46756
H     -2.18364    -0.38382    -0.75404
O     -0.74773    -1.41671    -1.51654
H     -0.11279    -2.00893    -1.06089
O      1.39141    -3.64696     0.81363
H      1.10507    -3.04202     1.50972
O      1.16942    -2.86230    -0.34888
H      2.06346    -2.58069    -0.60413
O      4.52415    -0.79071    -1.24866
H      5.09925    -1.07220    -1.96580
O      3.26549    -1.30954    -1.67925
H      2.72036    -0.49343    -1.72330
