 32
-1213.3109846278664
O      4.09377    -0.70441     0.83275
H      5.04296    -0.79855     0.95037
O      3.95979     0.70533     0.66568
H      3.25134     0.88088     1.31868
O     -2.28119    -2.30115    -0.73447
H     -2.51779    -2.89323    -1.45471
O     -1.08317    -1.71861    -1.22527
H     -1.36701    -0.82196    -1.53440
O     -1.45730     0.69362    -2.22811
H     -0.50184     0.86933    -2.34292
O     -1.84174     1.74732    -1.34576
H     -2.71600     1.43586    -1.03421
O     -0.68759     1.67998     1.11230
H     -1.01816     1.69713     0.19047
O     -1.44848     0.61318     1.70196
H     -0.73130     0.18040     2.20736
O      1.54918     1.38774    -0.99050
H      2.49455     1.24299    -0.84252
O      1.24032     0.49041    -2.06777
H      1.49278    -0.37800    -1.68604
O      1.08802    -1.86372     0.31712
H      0.27134    -1.83900    -0.22141
O      2.07977    -1.62707    -0.68414
H      2.85266    -1.41438    -0.12780
O      1.69218     1.07441     2.02254
H      0.96273     1.55160     1.57747
O      1.02177    -0.14101     2.35920
H      1.17555    -0.72023     1.58412
O     -3.71963     0.73592     0.23160
H     -3.10309     0.65535     0.98130
O     -4.24831    -0.58504     0.12447
H     -3.47596    -1.09318    -0.16247
