 32
-1213.314680174224
O     -0.09569    -2.80021    -0.30689
H      0.82407    -3.05615    -0.11847
O     -0.06725    -2.72408    -1.74277
H     -0.95384    -2.33946    -1.87606
O      0.09038     0.62657     2.49866
H     -0.84327     0.89364     2.38466
O      0.07224    -0.54928     1.68473
H      0.99114    -0.85526     1.72473
O     -2.26865    -0.88392    -0.12099
H     -1.42988    -1.25818     0.20748
O     -2.16254    -1.07567    -1.53013
H     -1.77407    -0.23082    -1.83299
O     -0.07152     1.63564    -1.30471
H     -0.82328     1.86422    -0.71906
O     -0.70895     1.02857    -2.43382
H      0.06195     0.53498    -2.76357
O      0.94225     2.94517     1.31870
H      0.84847     2.11191     1.81064
O     -0.06079     3.72350     1.97594
H      0.27690     4.61389     1.84267
O      1.45510    -0.54046    -2.24165
H      1.01117    -1.39215    -2.05227
O      1.86028    -0.11353    -0.93360
H      1.22811     0.61657    -0.76969
O      2.50952    -3.18759     0.24806
H      2.92013    -3.73147     0.92603
O      2.51424    -1.91100     0.87861
H      2.41417    -1.33236     0.09495
O     -2.25906     1.31375     1.40297
H     -2.41362     0.57787     0.77781
O     -1.85384     2.37531     0.53118
H     -1.30772     2.91863     1.13526
