 36
-1364.9760088322357
O      2.55956    -0.92767     1.83885
H      2.60254    -0.42142     1.00791
O      1.84803    -0.03879     2.69754
H      0.92070    -0.33504     2.60415
O      2.16490    -3.40850     0.12434
H      2.20170    -2.68412     0.76587
O      1.67755    -2.74738    -1.03843
H      0.74610    -3.02794    -1.06374
O      0.25626     2.59715     2.27707
H      0.34519     3.20173     3.02026
O      1.59644     2.47332     1.79632
H      1.82788     1.58872     2.16154
O     -0.79285    -1.07768     0.94346
H     -0.13797    -0.58458     0.40171
O     -0.78888    -0.33486     2.15575
H     -1.34206     0.42925     1.89475
O     -2.17917    -0.07209    -1.47633
H     -1.98931    -1.02688    -1.57159
O     -2.29848     0.33668    -2.83867
H     -1.79757     1.16440    -2.78475
O     -1.62631     2.62037     0.39646
H     -0.88129     2.65024     1.02933
O     -2.22669     1.37143     0.73715
H     -2.25887     0.89895    -0.12277
O     -0.94896     2.60929    -2.16282
H     -1.27157     2.74497    -1.24587
O      0.42917     2.37812    -1.90664
H      0.86160     3.02415    -2.47132
O      0.87766     0.01192    -0.73887
H      0.75872     0.82758    -1.26859
O      2.28838    -0.19710    -0.79175
H      2.26487    -1.13461    -1.07493
O     -0.97747    -3.25386    -0.57048
H     -1.04866    -2.56759     0.12595
O     -1.81811    -2.71071    -1.58143
H     -2.54207    -3.34307    -1.60580
