 36
-1364.976292941074
O     -2.36948     0.26553    -1.03950
H     -2.31553     0.41180    -0.07285
O     -2.41440    -1.16206    -1.14098
H     -1.53278    -1.35047    -1.49502
O     -0.65442    -1.66672     1.36578
H     -0.09176    -2.43352     1.14874
O     -1.96515    -2.22573     1.31870
H     -2.25593    -1.92319     0.44028
O     -2.04300     0.57052     1.62635
H     -1.96960    -0.25677     2.13711
O     -2.71763     1.48358     2.49473
H     -2.00283     2.12374     2.60966
O      0.52997    -1.25225    -1.42046
H      0.48962    -0.53524    -0.74661
O      1.30969    -0.57878    -2.41300
H      0.63606     0.04023    -2.78234
O     -0.74161     1.00876    -3.01437
H     -1.48747     0.83253    -2.40176
O     -0.29148     2.28951    -2.58368
H      0.06457     2.08621    -1.70648
O     -0.22042     3.45433     1.16569
H      0.68659     3.12456     1.13144
O     -0.48210     3.33583     2.56776
H     -0.67724     4.24861     2.79454
O      1.66809     1.41091     0.62493
H      2.21643     0.59301     0.68125
O      0.45898     0.84822     0.08647
H     -0.13627     0.84443     0.86216
O      3.91402    -0.42335    -0.48969
H      3.25521    -0.33511    -1.19430
O      3.11901    -0.82421     0.62233
H      2.88791    -1.74998     0.41080
O      1.98403    -3.15826    -0.32611
H      1.40789    -2.59155    -0.88642
O      1.05782    -3.59167     0.66929
H      0.87993    -4.50009     0.40817
