 32
-1213.3025025586828
O      0.15022    -3.23004    -0.02271
H     -0.72601    -3.15523     0.38700
O      1.00438    -3.10721     1.11763
H      1.58597    -2.37447     0.86207
O      0.15433    -1.12819    -1.67191
H      0.23948    -1.93575    -1.11933
O      1.50184    -0.93987    -2.13442
H      1.38173    -0.12542    -2.64630
O     -2.74947    -0.92018     0.84222
H     -2.87605    -0.20178     1.48575
O     -1.94884    -1.84586     1.57830
H     -1.13053    -1.33769     1.70361
O     -2.61822     2.39509     1.44139
H     -2.68327     3.16069     2.02192
O     -2.09340     1.38355     2.30114
H     -1.16116     1.35784     2.02528
O      2.00928     2.45207    -1.58063
H      2.12080     3.24790    -2.11042
O      0.97170     1.78826    -2.29894
H      0.21400     1.85649    -1.68273
O      3.02680    -1.25457     0.73790
H      3.93078    -1.53625     0.56460
O      2.92104    -0.06719    -0.04005
H      2.47299    -0.38985    -0.85050
O      0.14797     0.14886     0.97033
H     -0.09434     0.16269     0.02177
O      0.87077     1.37274     1.14851
H      1.75740     1.10792     0.84481
O     -1.27814     1.78151    -0.78011
H     -1.83201     2.10675    -0.04161
O     -2.17102     0.90972    -1.47466
H     -2.27893     0.18550    -0.83678
