 32
-1213.316062976884
O      3.04446     0.98303     0.52556
H      3.60441     0.64361    -0.18769
O      2.53966     2.16034    -0.12020
H      1.75899     2.33716     0.43357
O     -1.76636    -2.41940    -0.48008
H     -1.26664    -2.41305     0.35220
O     -0.75039    -2.19216    -1.44972
H     -0.95236    -1.29142    -1.77189
O     -0.74550     0.35982    -2.23255
H      0.20399     0.55149    -2.37197
O     -1.08523     1.26478    -1.18057
H     -1.95170     0.89421    -0.90978
O      0.12843     2.11977     1.04748
H     -0.28721     1.84366     0.20339
O     -0.96372     1.97929     1.94684
H     -0.65329     1.24572     2.49919
O      1.92123     0.83733    -2.34482
H      2.09851     1.54264    -1.69485
O      2.97476    -0.06790    -1.99743
H      2.48254    -0.78368    -1.55062
O      1.05322    -0.84538     0.50665
H      1.72742    -0.13893     0.56257
O      1.66482    -1.77965    -0.38547
H      0.86119    -2.08939    -0.85235
O     -1.35867    -1.71785     2.31745
H     -2.12558    -1.15160     2.13019
O     -0.41153    -0.72722     2.73688
H      0.25106    -0.81344     2.02919
O     -3.09919     0.04923     1.30313
H     -2.61881     0.88473     1.40127
O     -3.11968    -0.11877    -0.11414
H     -2.84915    -1.05248    -0.21424
