 40
-1516.6419023780456
O      1.04494     2.81015     0.79290
H      0.16086     2.94704     1.18398
O      1.41963     1.61562     1.47823
H      2.28458     1.84009     1.83458
O     -2.31657     1.90349    -0.94477
H     -2.39117     2.28640    -0.05505
O     -1.20553     1.03146    -0.75907
H     -1.48563     0.42715    -0.02974
O     -1.28061     2.83431     2.20524
H     -1.32944     1.89357     2.47809
O     -2.53952     2.97828     1.56530
H     -2.80930     3.84642     1.87085
O      2.59159    -0.70032     3.30042
H      2.73557    -1.44834     3.88621
O      1.48527    -1.17179     2.53942
H      1.85087    -1.18133     1.62595
O     -1.96232    -0.36458     1.47380
H     -1.66358    -1.31177     1.46539
O     -1.22799     0.18462     2.57519
H     -0.36197    -0.24979     2.49341
O     -0.69616    -2.59369     1.02574
H      0.00151    -2.48440     0.34479
O     -1.75693    -3.25482     0.35758
H     -1.88376    -2.68947    -0.41784
O      1.98477     1.31611    -1.23551
H      1.65096     1.98728    -0.61032
O      0.97449     1.31456    -2.25176
H      0.14421     1.24884    -1.72710
O     -1.42113    -1.54327    -2.07425
H     -0.73429    -1.38536    -2.74251
O     -2.56113    -0.85564    -2.61129
H     -2.53081    -0.02757    -2.11612
O      2.24048    -1.07361    -0.00918
H      2.17931    -0.20797    -0.46709
O      1.26944    -1.86115    -0.71406
H      1.69357    -1.95372    -1.58885
O      2.38115    -1.58188    -3.14890
H      2.55635    -2.14377    -3.90627
O      1.11776    -1.03688    -3.50612
H      1.20561    -0.12729    -3.14780
