 32
-1213.3149321274245
O     -0.44721    -0.42727     2.24989
H      0.32830     0.06923     1.91051
O     -0.64978    -1.39205     1.21723
H     -1.21787    -0.88677     0.59277
O      0.49172     1.70682    -2.09640
H      1.02464     1.53484    -1.28910
O     -0.78102     2.08245    -1.55853
H     -0.65512     3.00763    -1.29487
O     -0.20013    -3.91594    -0.70332
H      0.75080    -3.73867    -0.81507
O     -0.24014    -4.36184     0.65420
H     -0.67714    -3.61082     1.07421
O     -2.02530     0.62137     0.26113
H     -1.55809     1.14202    -0.42446
O     -2.04164     1.51201     1.37937
H     -1.60983     0.93204     2.03425
O      1.30948     1.28619     1.30270
H      0.96251     2.18669     1.14422
O      1.91214     0.96248     0.05006
H      2.01047    -0.01739     0.14303
O      0.33742    -1.02096    -2.45710
H      0.28881    -0.05420    -2.56704
O     -0.85903    -1.28509    -1.72076
H     -0.77912    -2.24142    -1.57572
O      2.00054    -2.33318    -0.83935
H      1.53133    -1.72402    -1.44626
O      1.88102    -1.64701     0.41278
H      0.96335    -1.84223     0.69011
O     -0.96595     3.85873     0.61830
H     -1.38867     3.05558     0.98800
O      0.34422     3.75445     1.15806
H      0.35673     4.44438     1.82869
