 40
-1516.6353869476513
O     -2.36106     0.91766    -1.62954
H     -2.15718     1.47307    -2.39637
O     -3.15474    -0.13274    -2.22204
H     -2.59265    -0.89519    -2.03756
O      1.57165     2.17656     1.72507
H      0.69508     2.60023     1.72252
O      1.29469     0.96720     1.02032
H      0.56932     0.56101     1.55134
O     -0.85303    -0.02071     2.34719
H     -0.85126    -0.99852     2.34431
O     -1.86798     0.26657     1.37694
H     -1.53407    -0.24881     0.60222
O      2.89078    -1.74630    -1.11916
H      2.66833    -0.85584    -1.45874
O      1.80281    -2.52429    -1.61823
H      2.26881    -3.32864    -1.85931
O     -1.67790     2.85683     0.69693
H     -1.87966     1.90264     0.82808
O     -0.97276     3.23156     1.88434
H     -1.49241     2.82664     2.58823
O      1.97476     0.78851    -1.53381
H      1.74542     0.96489    -0.59416
O      0.66277     0.64063    -2.09713
H      0.33151     1.56187    -2.04590
O     -0.24993     3.14007    -1.61165
H     -0.74490     3.12888    -0.76344
O     -1.20545     3.71670    -2.49505
H     -0.74558     4.51613    -2.76707
O     -0.50615    -1.08179    -0.38808
H     -0.06953    -0.61074    -1.13898
O     -1.06783    -2.26042    -0.96880
H     -0.66267    -2.91943    -0.38977
O     -0.50135    -2.71996     1.89039
H      0.46212    -2.59466     1.71537
O     -0.70223    -3.98102     1.24920
H     -1.60970    -4.16085     1.50875
O      2.77006    -1.45456     2.16027
H      2.61078    -0.61513     1.70867
O      2.04165    -2.36552     1.34070
H      2.39847    -2.21786     0.43373
