 36
-1364.9788939095308
O      2.74207    -0.13172    -0.28009
H      2.50067    -1.07023    -0.26803
O      1.87556     0.36650     0.74441
H      2.07913     1.33481     0.72894
O     -0.82465     1.42849     0.30707
H     -0.10994     0.83590     0.00783
O     -0.61479     1.52835     1.71122
H     -0.52183     0.58348     1.98844
O      0.50919     2.25584    -2.36024
H     -0.06969     2.42965    -3.11084
O      0.33391     3.41777    -1.55524
H     -0.24686     3.07841    -0.85578
O     -0.80647    -0.66561    -2.78610
H     -1.63445    -0.61127    -2.28747
O      0.13066    -0.41113    -1.73672
H      0.59189     0.37339    -2.07584
O     -2.94265     0.31172    -0.87457
H     -2.24318     0.76209    -0.35395
O     -3.70490    -0.33815     0.14184
H     -4.58938    -0.29183    -0.23093
O     -1.75630    -3.43245    -0.05891
H     -0.84070    -3.69506     0.15235
O     -1.61140    -2.01783     0.12802
H     -2.52508    -1.67345     0.06608
O      1.55837     3.74205     1.47724
H      0.91335     3.08971     1.78654
O      2.28845     2.97060     0.51698
H      2.09537     3.42536    -0.31787
O      0.93710    -1.57453     2.23032
H      1.36892    -0.81821     1.78354
O     -0.40809    -1.07700     2.28112
H     -0.82507    -1.53229     1.51580
O      1.52345    -2.79643    -0.56801
H      0.78183    -2.26374    -0.90051
O      0.90373    -3.57333     0.44929
H      0.99540    -2.98468     1.22696
