 20
-758.3065728416514
O     -1.45450     1.22338     0.11606
H     -1.73438     0.29322     0.22284
O     -1.62481     1.44023    -1.28372
H     -0.89808     0.91519    -1.65942
O      2.74171     0.43431     0.35246
H      2.16537     1.11772     0.74016
O      1.79107    -0.60720     0.11796
H      1.43909    -0.81357     0.99656
O      0.34528     1.16372     2.61915
H      0.17995     1.89030     3.22682
O      0.71708     1.88428     1.44161
H     -0.06607     1.70298     0.86618
O     -0.16217    -1.55450    -2.23669
H      0.45287    -1.97582    -2.84569
O      0.40299    -0.25230    -2.09448
H      0.91976    -0.36437    -1.26115
O     -2.01681    -1.39212     0.45628
H     -2.44021    -1.88344     1.16609
O     -0.76614    -2.07800     0.33932
H     -0.63011    -2.00528    -0.62215
