 36
-1364.9769102925648
O     -1.42638     0.40733     3.22684
H     -2.18638     0.51694     2.63024
O     -1.63389    -0.89101     3.77313
H     -1.72942    -0.68636     4.70681
O     -2.72896     0.01076     0.65368
H     -1.98049    -0.59356     0.52023
O     -2.08567     1.27979     0.60111
H     -2.30356     1.57694    -0.30462
O      3.39104     1.11264     0.47350
H      2.91772     0.62530     1.18019
O      4.05811     0.06722    -0.23377
H      3.36519    -0.22699    -0.84885
O      1.06163    -1.81273    -1.64970
H      0.41303    -1.70393    -2.37297
O      1.92270    -0.68009    -1.84109
H      1.35342     0.05705    -1.53774
O     -2.42435     2.02750    -1.97141
H     -2.44604     2.92522    -2.31461
O     -1.28271     1.47759    -2.62318
H     -0.60407     1.53311    -1.91461
O      1.66155    -0.20863     2.03556
H      1.15589    -0.85462     1.49457
O      0.83452     0.95767     1.87143
H      0.08241     0.75137     2.46127
O     -1.11229    -1.26953    -3.11838
H     -1.39065    -0.34431    -3.02725
O     -1.75277    -1.85344    -1.98729
H     -1.93715    -2.73706    -2.31685
O      1.57074     2.36301    -1.00178
H      2.34386     1.97930    -0.52632
O      0.60813     1.34382    -0.74225
H      0.60350     1.28349     0.24723
O     -0.13593    -1.60896     0.74215
H      0.24222    -1.96789    -0.08893
O     -0.25484    -2.71981     1.62474
H     -0.50390    -2.23660     2.42245
