 24
-909.9702322137679
O     -2.01499    -0.95534    -0.05835
H     -2.22702    -0.08785     0.33924
O     -0.63828    -0.73740    -0.40285
H     -0.39504    -1.59548    -0.81717
O      0.37486    -2.85824    -1.53495
H      0.36233    -3.75269    -1.88836
O      1.39917    -2.92646    -0.54563
H      1.89863    -2.12901    -0.77750
O      0.15992     1.45387     1.50963
H      0.32513     1.61104     0.56544
O      0.73111     0.15217     1.72928
H      0.20134    -0.38870     1.11697
O     -2.97700     1.25650     1.11051
H     -3.91132     1.26396     1.34007
O     -2.37210     1.22870     2.41356
H     -1.43844     1.35630     2.15876
O     -0.57786     1.45062    -1.89367
H     -0.66525     0.60283    -1.41007
O      0.53230     1.99859    -1.16618
H      0.66624     2.85053    -1.59392
O      3.07549     0.38568     0.08814
H      2.56109     0.17987     0.88348
O      2.20089    -0.10898    -0.93948
H      1.68449     0.68651    -1.15753
