 32
-1213.3041269144924
O     -2.33854     0.70016     0.91183
H     -1.83154    -0.12727     0.95301
O     -1.64868     1.44755    -0.09063
H     -2.02226     1.10985    -0.92076
O      2.77914    -1.08706    -1.13329
H      2.60815    -0.37356    -0.48761
O      3.68223    -1.91218    -0.40282
H      4.44688    -1.91052    -0.98498
O     -2.03281     0.35029    -2.77874
H     -1.12609     0.59964    -3.00971
O     -2.00326    -1.03508    -3.11919
H     -2.90859    -1.18280    -3.40364
O      0.68945     2.20555    -1.86613
H      1.60217     2.34790    -1.58996
O      0.67161     0.80423    -2.11958
H      0.45501     0.42148    -1.24892
O      1.62138     0.55285     0.66681
H      1.15987    -0.13931     1.19437
O      1.07196     1.77342     1.16731
H      0.28012     1.87615     0.61363
O      0.34014    -2.40791    -1.04953
H      1.15924    -1.90268    -1.20233
O     -0.60659    -1.35632    -0.84079
H     -1.13709    -1.39526    -1.66163
O     -0.83339    -1.34086     2.40143
H     -0.61657    -0.54029     2.93591
O      0.43058    -1.56123     1.74949
H      0.16465    -2.10479     0.99110
O     -0.25216     1.03612     3.39905
H      0.31804     1.48315     2.74302
O     -1.47310     1.77226     3.29317
H     -1.86111     1.40301     2.48104
