 40
-1516.6395677685152
O      2.15930    -0.06663    -1.90403
H      1.57626     0.67953    -1.61570
O      1.23877    -0.93460    -2.55932
H      1.13160    -1.64425    -1.88634
O     -0.26587    -0.12558     1.73206
H      0.52635    -0.46908     1.27693
O     -1.26914    -1.11726     1.52922
H     -1.42882    -1.07531     0.56901
O      0.51594     3.79870     1.13913
H     -0.25455     3.39285     1.57884
O      1.59413     3.23674     1.88358
H      1.71260     2.39341     1.42212
O     -1.35943    -2.06192    -3.48323
H     -0.86517    -2.25370    -4.28585
O     -1.26539    -0.64252    -3.36587
H     -0.34005    -0.54539    -3.04785
O     -1.29446     2.22900     2.34299
H     -0.93675     1.33572     2.12654
O     -2.61758     2.14295     1.82880
H     -3.14286     2.11836     2.63400
O      0.88503     2.91632    -1.33644
H      0.84567     3.43870    -0.50824
O      0.50946     1.64980    -0.78453
H     -0.47454     1.67610    -0.80602
O     -2.16065     1.41005    -0.71294
H     -2.47525     1.60551     0.19046
O     -2.53991     0.04266    -0.86053
H     -2.37550    -0.08171    -1.80529
O     -0.84830    -2.51408    -0.88897
H     -1.00246    -2.47797    -1.85506
O      0.56115    -2.76221    -0.83933
H      0.69323    -2.98519     0.10740
O     -0.28565    -3.48777     2.37959
H     -0.70026    -2.64287     2.12378
O      0.99632    -3.30597     1.76296
H      1.59947    -3.38077     2.50834
O      2.56026     0.45155     1.20171
H      3.42971     0.43590     1.61368
O      2.49035    -0.85818     0.64255
H      2.52437    -0.65260    -0.31964
