 40
-1516.6465946021683
O      3.06631     1.27880     2.06432
H      3.13805     1.70385     1.18776
O      3.65723     0.01371     1.74137
H      2.91439    -0.59615     1.91746
O      3.02288     1.44255    -0.56740
H      2.07463     1.22984    -0.69734
O      3.64879     0.19556    -0.91357
H      3.89648    -0.09829    -0.01696
O     -4.05011     1.26755     1.62055
H     -4.66506     1.12370     2.34774
O     -2.85320     0.70167     2.15136
H     -2.69498    -0.02875     1.52516
O      0.41469     0.94487     2.54875
H      1.35690     1.20105     2.47808
O     -0.23324     1.86686     1.67569
H     -1.14299     1.78755     1.99505
O      0.10845     0.95895    -2.22315
H      0.23664     0.05870    -2.55974
O      0.48126     0.74205    -0.85801
H     -0.29536     1.06558    -0.35899
O     -1.31416    -2.49273     0.30321
H     -0.80545    -2.33412     1.12455
O     -2.01578    -1.25092     0.21589
H     -2.23695    -1.20943    -0.73045
O     -2.27623     1.75181    -0.67051
H     -3.17625     1.95344    -0.38106
O     -2.42324     1.72565    -2.10654
H     -1.47086     1.65724    -2.31459
O      1.59396    -1.66975     1.75660
H      1.43457    -1.70351     0.78948
O      0.26933    -1.67046     2.27776
H      0.14301    -0.71158     2.42979
O      1.70752    -1.35732    -2.06991
H      2.46375    -0.81756    -1.76412
O      1.32328    -2.00549    -0.85730
H      0.37083    -2.15959    -0.97660
O     -2.41971    -1.14434    -2.54684
H     -2.56621    -0.20296    -2.73829
O     -1.22834    -1.41930    -3.27974
H     -1.54447    -2.03947    -3.94489
