 28
-1061.6496251371918
O     -1.24289     0.28077    -1.29937
H     -1.13248     1.20421    -0.96724
O     -0.06536     0.07482    -2.09969
H      0.63473     0.12515    -1.41019
O     -1.28785     0.07660     1.67085
H     -1.57344    -0.77090     1.27393
O     -0.00421    -0.27695     2.19714
H      0.31277     0.58457     2.50206
O      1.56704     2.65419     0.97686
H      1.85584     1.76402     0.73296
O      1.12509     2.43850     2.32847
H     -0.02100    -2.75440    -0.98049
O     -0.81359     2.70735    -0.22322
H      0.11964     2.92908    -0.04800
O     -1.32188     2.68684     1.11859
H     -1.42131     1.72845     1.26339
O     -2.02249    -2.24153     0.59374
H     -2.86131    -2.71227     0.62463
O     -1.71582    -2.27788    -0.79920
H     -1.71594    -1.32043    -1.02288
O      0.90308    -2.60519    -2.61264
H      0.62704    -1.67841    -2.69588
O      0.93118    -2.74656    -1.19482
H      0.25487     2.86145     2.27153
O      1.62959    -0.05000    -0.10958
H      1.17009    -0.63033     0.52187
O      2.68231    -0.84791    -0.62814
H      2.17042    -1.62384    -0.95089
