 20
-758.3052500873471
O     -0.99393    -1.72330    -0.58961
H     -1.61771    -1.37257     0.06569
O     -0.20159    -2.65179     0.16465
H      0.34673    -2.04100     0.70156
O      0.22978     0.37568    -1.52353
H     -0.12714    -0.48610    -1.18727
O      1.57397     0.02651    -1.83952
H      1.53074    -0.05965    -2.79548
O      0.87231     1.78592     0.71755
H      0.55386     1.51659    -0.16599
O     -0.32942     2.18526     1.37322
H     -0.27247     3.14530     1.34008
O      1.24075    -0.83130     1.50561
H      1.18359     0.13842     1.41237
O      2.53557    -1.13353     0.98954
H      2.39053    -1.06563     0.03711
O     -2.59975     1.27860    -0.76143
H     -2.02862     0.85077    -1.41150
O     -2.23522     0.56731     0.42106
H     -1.60016     1.18737     0.82470
