 36
-1364.9691766963742
O      1.73478     2.03375     0.65986
H      2.16218     1.85225    -0.20575
O      1.59785     0.70881     1.17119
H      0.67503     0.49850     0.91448
O     -2.86381    -1.61394    -2.74759
H     -3.62887    -2.06507    -2.38291
O     -2.18743    -1.25252    -1.54601
H     -2.14917    -0.27325    -1.62955
O      0.11222    -0.95891     3.37692
H     -0.77236    -0.73914     3.04016
O      0.56406     0.30377     3.87664
H      1.26235     0.52146     3.24355
O      2.98105     0.19363    -2.24801
H      2.29367    -0.36476    -1.83529
O      2.59593     1.50059    -1.81060
H      2.11165     1.84966    -2.56931
O     -1.78056    -0.61851     1.43028
H     -1.49713    -1.45080     1.02736
O     -0.97154     0.28587     0.66756
H     -1.30529     1.15913     0.97002
O     -0.64619     3.20103     0.24301
H      0.24483     2.83718     0.45776
O     -1.40648     2.77366     1.36946
H     -1.44166     3.56069     1.92056
O      0.25532    -2.41992    -1.53515
H     -0.64741    -2.04096    -1.59265
O      0.99309    -1.27609    -1.08627
H      1.20421    -1.53088    -0.15862
O     -1.58071     1.36422    -1.87772
H     -1.48012     2.15512    -1.32309
O     -0.27712     1.23712    -2.45141
H      0.06423     0.45242    -1.99517
O     -0.20654    -3.13963     1.05875
H     -0.02224    -3.50773     0.18460
O      1.02350    -2.43326     1.28391
H      0.82175    -1.98758     2.12700
