 24
-909.9728874976901
O      0.31756    -2.20577     0.69300
H      0.64460    -1.61374    -0.01232
O     -1.09684    -2.21394     0.42998
H     -1.38162    -1.55080     1.08863
O     -1.96431     2.13209    -0.45860
H     -1.68558     3.02998    -0.66118
O     -0.73237     1.56974    -0.00662
H     -0.48944     0.98921    -0.75322
O      1.27813    -0.29236    -0.89031
H      1.94845     0.24622    -0.42475
O      1.58226    -0.12626    -2.27975
H      0.70883    -0.35420    -2.63020
O     -1.21610    -0.66382    -1.86764
H     -1.41976    -1.37893    -1.23740
O     -2.48352    -0.28443    -2.41343
H     -2.68331     0.49004    -1.87001
O     -1.04988    -0.11838     2.06628
H     -0.91912     0.59197     1.41089
O      0.28546    -0.31308     2.55451
H      0.49555    -1.15353     2.10110
O      1.91717     1.55914     1.37184
H      1.42432     0.91104     1.90661
O      2.97926     0.74646     0.86732
H      3.73790     1.32687     0.97457
