 40
-1516.636300351503
O      2.73542    -1.56714     0.42523
H      2.16597    -1.53157    -0.36960
O      3.48114    -0.36091     0.32718
H      4.31722    -0.66237    -0.04286
O     -1.37613     1.02520    -1.57498
H     -1.17630     1.63509    -0.82788
O     -1.80462    -0.15270    -0.88393
H     -1.09378    -0.78454    -1.12001
O     -3.57776     2.26900     2.66369
H     -3.68469     2.61801     3.55325
O     -2.24579     1.76457     2.74007
H     -2.38064     0.81959     2.52072
O      0.40236     0.00344     1.07560
H      0.40887     0.97441     1.24795
O      0.78213    -0.59540     2.31938
H      1.51581    -1.13824     1.99666
O      0.42446     2.67496     0.96780
H      0.84662     2.72077     0.07980
O     -0.94182     2.62404     0.55095
H     -1.41395     2.41898     1.39002
O      2.73480     2.05265    -1.17929
H      2.63963     1.30928    -0.56598
O      1.36953     2.33186    -1.45491
H      1.26353     2.00230    -2.37288
O      0.04400     0.23795    -3.66911
H     -0.55160     0.58282    -2.96431
O      0.88287     1.36354    -3.90593
H      0.48315     1.77061    -4.68003
O     -0.37790    -3.63834     0.41051
H     -0.93911    -3.05843     0.96923
O      0.78658    -3.74074     1.22672
H      0.72073    -4.64798     1.54257
O     -0.04374    -1.98973    -1.71436
H      0.05180    -2.73656    -1.09328
O      1.30678    -1.56595    -1.92128
H      1.18686    -1.00114    -2.70350
O     -1.57700    -1.81179     1.99675
H     -0.77867    -1.34063     2.30535
O     -2.46462    -0.74191     1.68134
H     -2.23415    -0.54465     0.75030
