 16
-606.6395471601562
O     -1.66422    -1.87465     0.90494
H     -2.40333    -2.15225     1.45313
O     -1.54935    -0.50050     1.28630
H     -1.74928    -0.04969     0.45069
O      1.33711     1.06026     1.39929
H      0.61591     1.41722     0.85554
O      1.17232    -0.35475     1.25832
H      0.23011    -0.49278     1.47645
O      0.96792    -1.32054    -1.94382
H      1.70946    -1.46851    -2.53756
O      1.32860    -0.06299    -1.36936
H      1.48242    -0.29730    -0.42082
O     -1.07060     1.13433    -1.05497
H     -0.22892     0.67851    -1.27646
O     -0.60111     2.17181    -0.18756
H     -0.39544     2.87705    -0.81083
