 32
-1213.3067043266476
O      2.82747     0.82556     0.93171
H      2.77580     0.59934    -0.02253
O      2.96021    -0.47633     1.52862
H      2.28446    -0.40313     2.21296
O      0.15213    -1.07670    -2.82429
H     -0.29625    -0.26768    -3.10224
O     -0.74312    -1.49858    -1.78772
H     -0.11493    -1.65381    -1.04328
O     -2.06215     0.87265    -2.67724
H     -2.61406     1.40069    -3.26071
O     -2.99202    -0.11205    -2.20950
H     -2.34504    -0.81574    -2.01621
O     -2.49022    -1.16774     1.59341
H     -2.94676    -1.63327     2.29947
O     -2.34051     0.12957     2.17504
H     -2.19877     0.64985     1.35823
O      2.24088     0.03284    -1.54660
H      1.65659    -0.54969    -2.07060
O      1.71287     1.31313    -1.88203
H      1.02112     1.42302    -1.19991
O      0.93999    -2.00189     0.17906
H      1.80540    -1.66858     0.47147
O      0.27219    -2.30377     1.40449
H     -0.53694    -1.78763     1.29296
O      0.45182     0.62492     2.44945
H     -0.42934     0.57990     2.85443
O      0.90786     1.94400     2.76552
H      1.71289     1.94545     2.22590
O     -0.15519     1.57930     0.01408
H      0.06366     1.17204     0.88098
O     -1.58202     1.38423    -0.05212
H     -1.71997     1.18553    -0.99684
