 40
-1516.6470039893702
O      2.19461    -0.52734    -0.82565
H      1.57510    -1.01836    -0.24649
O      1.42872    -0.37535    -2.01819
H      1.05231     0.51787    -1.91188
O      0.56834    -1.49202     1.02707
H      0.38341    -2.44703     1.05857
O      0.99603    -1.18494     2.35032
H      1.71598    -0.55368     2.15927
O      1.30650     3.08949     2.14346
H      0.40457     2.79090     1.92345
O      1.72667     3.66409     0.90561
H      2.40558     3.01348     0.64760
O      0.12706     1.96131    -1.54979
H     -0.76967     1.82303    -1.90127
O      0.31504     3.37010    -1.65556
H      0.53397     3.57614    -0.73692
O     -1.62095    -3.73811    -0.55868
H     -1.93743    -3.10585     0.10874
O     -0.25715    -3.92798    -0.15895
H      0.18375    -3.69689    -0.99650
O      2.74889     0.89637     2.04788
H      2.26908     1.67552     2.39869
O      3.11467     1.42152     0.77060
H      2.88343     0.68159     0.17509
O     -0.92935     1.96654     1.16992
H     -0.51083     1.61815     0.36061
O     -2.30840     1.70631     0.92189
H     -2.43486     0.91101     1.48062
O     -2.42332    -1.55334     0.93335
H     -2.19266    -0.96546     0.18294
O     -2.12824    -0.70459     2.04287
H     -1.17884    -0.84930     2.17602
O      0.18997    -2.68308    -2.47962
H      0.66281    -1.82700    -2.40256
O     -1.15706    -2.24443    -2.71470
H     -1.61819    -2.91640    -2.17972
O     -2.47791     0.81483    -1.59706
H     -2.64730     1.23994    -0.73343
O     -1.51320    -0.13032    -1.14156
H     -1.41742    -0.77092    -1.88572
