 32
-1213.3079840842709
O     -1.47319    -1.41794     1.87999
H     -0.53270    -1.29242     2.10277
O     -1.38796    -2.25685     0.72385
H     -1.59042    -1.62074     0.00617
O      1.43072    -1.60779    -0.39987
H      1.08536    -1.68801    -1.31418
O      1.15876    -2.87820     0.17124
H      0.20804    -2.77719     0.38576
O     -1.69887    -0.34884    -1.09305
H     -2.17788     0.43816    -0.78080
O     -2.38538    -0.74631    -2.27963
H     -1.66194    -0.62810    -2.90877
O      1.97614     1.02459    -0.38148
H      1.99461     0.05511    -0.26459
O      0.72826     1.18361    -1.05419
H      0.06978     1.00179    -0.34705
O      0.96747     3.34079     1.07120
H      1.20353     2.91868     0.23290
O     -0.31299     3.87788     0.73586
H     -0.25939     4.75439     1.12433
O      0.83951    -1.50668    -2.99330
H      1.50631    -1.60490    -3.67999
O      0.26790    -0.23555    -3.30220
H      0.52607     0.29313    -2.51711
O      2.06245    -0.05567     2.55550
H      1.59213     0.64680     2.08478
O      1.15551    -1.14407     2.38092
H      1.65565    -1.75626     1.81623
O     -0.96526     1.28816     0.95975
H     -0.90081     2.23676     1.18794
O     -2.34299     1.00206     1.17906
H     -2.23827     0.10536     1.55223
