 36
-1364.9691252841035
O      1.84397     0.59334     1.91211
H      1.54388    -0.31496     1.71309
O      3.04546     0.66082     1.14619
H      2.94899     1.54012     0.75669
O     -2.98028     0.08047     0.18054
H     -2.52286     0.74380    -0.36926
O     -2.79648    -1.12196    -0.57565
H     -2.65916    -1.76223     0.13724
O      0.22540    -1.21987    -0.19556
H      0.06653    -0.25227    -0.08330
O      0.54780    -1.61105     1.14529
H     -0.23470    -2.15034     1.37035
O      0.13674    -1.61036    -2.79317
H      0.24122    -1.69797    -1.82334
O     -0.98346    -0.73013    -2.88915
H     -1.61856    -1.13263    -2.27617
O      1.76880     0.61346    -2.21476
H      1.39495    -0.13231    -2.72328
O      3.04419     0.11455    -1.79909
H      2.87863    -0.09382    -0.86779
O     -1.13866     0.99496     2.89054
H     -0.21603     0.82400     2.66352
O     -1.75296    -0.22903     2.52705
H     -2.26615     0.01367     1.72899
O     -1.23905     1.62262    -1.19381
H     -0.92762     0.99909    -1.87085
O     -0.32816     1.35761    -0.12282
H      0.33076     2.07220    -0.20549
O      2.18843     2.75337    -0.67700
H      2.17937     2.16043    -1.45715
O      1.92239     4.03251    -1.24747
H      2.75612     4.47582    -1.07407
O     -1.71688    -3.01630     1.51435
H     -1.80570    -3.96693     1.40350
O     -2.05670    -2.83098     2.88919
H     -1.93077    -1.86191     2.93928
