 20
-758.3004653284871
O     -1.29230    -0.66657     1.16807
H     -2.23853    -0.90084     1.18693
O     -1.15655    -0.34458    -0.22729
H     -0.34749    -0.84884    -0.44710
O      1.48580    -0.70087    -1.92306
H      2.10365    -0.11002    -1.44603
O      1.11765    -1.58450    -0.86077
H      1.45002    -2.42944    -1.17726
O      0.72600     1.10658     1.34692
H     -0.05364     0.55578     1.54586
O      0.19299     2.06722     0.42805
H     -0.16993     1.48408    -0.25333
O      3.99466     0.59522     0.33011
H      4.57160     1.35848     0.23299
O      2.82452     1.05598    -0.34032
H      2.17812     1.12376     0.39361
O     -4.06862    -0.92303    -0.61519
H     -3.17971    -0.61394    -0.84412
O     -3.94062    -1.02861     0.80909
H     -4.54324    -0.34402     1.11747
