 32
-1213.3131006158112
O      2.40585     0.70535     1.05905
H      2.69502     0.02102     0.43287
O      1.37540     1.34611     0.29932
H      0.63580     1.44270     0.94311
O     -0.81130    -1.02020    -0.25248
H      0.02341    -1.27524    -0.69886
O     -1.78450    -1.67783    -1.05411
H     -1.78184    -1.06687    -1.81955
O     -1.26875     0.32845    -2.72221
H     -0.30752     0.42879    -2.67957
O     -1.68078     1.49271    -2.00692
H     -2.37039     1.12188    -1.43784
O     -0.81351     1.67967     1.81170
H     -1.50937     1.68407     1.13549
O     -1.28901     0.60215     2.63666
H     -0.46349     0.10115     2.79006
O      1.54003     0.82674    -2.33119
H      1.50694     1.16237    -1.40835
O      2.88995     1.08657    -2.68075
H      2.77922     1.75406    -3.36343
O      1.56218    -1.78224    -1.23240
H      1.99447    -1.21376    -1.88831
O      2.51953    -1.77013    -0.15929
H      1.95293    -2.06368     0.57820
O      0.80909    -2.01273     1.89784
H     -0.04401    -1.84210     1.46846
O      0.97736    -0.85117     2.70644
H      1.61765    -0.31996     2.18961
O     -3.92974     0.38299     1.58910
H     -3.33088     0.53619     2.33443
O     -3.04447     0.58906     0.48859
H     -2.61745    -0.27792     0.37831
