 24
-909.9793575794481
O     -2.34088    -0.90697     0.70398
H     -2.18482    -0.19093     0.04091
O     -2.55990    -2.03194    -0.14004
H     -3.13077    -2.56330     0.42014
O      0.47604    -1.28110    -1.31228
H      1.36409    -0.99235    -1.01143
O      0.11143    -2.25279    -0.32977
H     -0.85960    -2.23536    -0.40490
O      2.78759    -0.15577    -0.69728
H      3.70173    -0.22750    -0.98791
O      2.31887     0.95745    -1.45838
H      1.93888     1.48598    -0.73434
O     -1.60351     1.18071    -0.67118
H     -0.99298     1.82641    -0.26322
O     -0.94792     0.92525    -1.91263
H     -0.45399     0.11251    -1.70899
O     -0.11648     0.00449     1.92588
H     -0.98896    -0.36769     1.70628
O      0.68880    -1.16982     2.06471
H      0.56998    -1.60106     1.19496
O      0.09851     2.81595     0.55219
H      0.03944     3.32879     1.36322
O      1.21237     1.96445     0.80080
H      0.76924     1.17103     1.19321
