 40
-1516.6408054114406
O     -0.96449     2.65826     4.09565
H     -0.39731     3.03177     4.77544
O     -0.02981     1.83051     3.40647
H     -0.05319     2.20939     2.50398
O      2.76615    -0.04077    -2.65478
H      3.01214     0.65771    -2.01566
O      3.27875    -1.17644    -1.95547
H      2.47085    -1.54347    -1.54584
O     -0.07340     1.45513    -2.42859
H     -1.03631     1.57019    -2.54851
O      0.10657     0.12118    -2.92091
H      1.08520     0.03487    -2.92193
O     -1.12463    -0.56409     2.80279
H     -0.77392     0.24104     3.23999
O     -1.15918    -0.08546     1.45695
H     -0.30781    -0.44271     1.13627
O     -2.76442     1.58535    -2.28534
H     -3.35816     2.33496    -2.19368
O     -2.50984     1.27683    -0.91881
H     -2.46751     0.29590    -0.95013
O      0.74987     1.79523     0.10662
H      0.43493     1.75555    -0.82440
O     -0.34653     2.41308     0.77413
H     -1.04672     1.75121     0.62423
O      3.29138     1.24863    -0.40245
H      2.41044     1.48032    -0.05310
O      3.63481     0.10929     0.39840
H      3.94841    -0.47343    -0.31141
O     -1.52273    -3.78173     1.58667
H     -2.20479    -4.42558     1.79072
O     -2.30851    -2.60617     1.45701
H     -1.92386    -2.01917     2.13776
O      1.11657    -1.12950     0.58600
H      2.01126    -0.74572     0.68322
O      1.32305    -2.12104    -0.42066
H      0.41420    -2.20131    -0.77765
O     -1.06452    -1.86805    -1.59187
H     -0.77990    -1.09977    -2.12784
O     -2.23694    -1.37572    -0.94580
H     -2.24807    -1.89805    -0.11547
