 32
-1213.3154111912995
O      2.27240    -0.91426     0.56278
H      2.31445    -1.18285    -0.37652
O      2.58331     0.47768     0.48294
H      2.01289     0.82566     1.19335
O      0.02187    -2.23400     1.35572
H      0.88572    -1.80895     1.19952
O     -0.53182    -1.37103     2.35221
H     -1.27433    -0.96871     1.87727
O      1.16243     1.20890    -1.62095
H      1.92367     1.10107    -1.01687
O      0.20424     1.68648    -0.68407
H     -0.29445     0.88109    -0.42150
O     -2.35393     3.16371     0.25465
H     -2.85644     3.71815    -0.35165
O     -1.07920     3.79972     0.26441
H     -0.54722     3.13069    -0.20909
O     -1.51515    -0.19398    -0.06782
H     -1.81750    -0.97186    -0.56714
O     -2.70653     0.30867     0.53750
H     -2.52988     1.25831     0.45617
O      1.93142    -1.90645    -1.96092
H      1.37593    -2.67202    -1.71756
O      0.97920    -1.20779    -2.77463
H      1.05071    -0.29765    -2.43035
O     -1.17679    -2.40194    -1.79000
H     -0.58876    -1.90547    -2.38811
O     -0.21036    -3.26051    -1.17292
H     -0.28228    -2.99420    -0.24017
O     -0.46638     1.77101     2.30037
H     -0.22634     2.65629     1.99874
O      0.81322     1.13332     2.37896
H      0.55861     0.27890     2.75588
