 20
-758.2987941173203
O      0.75634    -2.60860     2.86073
H      1.21791    -1.84646     3.22544
O      1.82521    -3.30675     2.20303
H      1.56581    -3.17818     1.27793
O      0.18632    -2.46636    -0.07892
H      0.17587    -1.69049    -0.66310
O     -0.90415    -2.10015     0.79196
H     -0.47396    -2.25673     1.65043
O     -0.20081     2.11485     0.97942
H     -0.75005     1.47811     0.48038
O     -0.38770     3.29346     0.18241
H     -0.05592     3.96817     0.78187
O     -0.21462     1.96421    -2.85165
H      0.09056     2.02830    -3.76142
O      0.82468     2.67021    -2.16096
H      0.34621     2.89903    -1.34310
O     -0.51599    -0.21092    -1.34498
H     -0.42385     0.61285    -1.87033
O     -1.51937     0.19181    -0.39308
H     -1.55069    -0.62671     0.13857
