 36
-1364.978383865996
O      1.16116     2.94533    -0.86827
H      0.58285     2.33936    -1.36473
O      1.59355     2.09550     0.19590
H      2.53940     1.98502     0.00816
O     -2.04127    -1.23165    -0.53005
H     -1.52001    -0.68282     0.10075
O     -3.34436    -1.09235     0.01234
H     -3.44037    -0.12772     0.05548
O      1.40884    -1.80471    -1.28743
H      1.51183    -1.99108    -0.33990
O      1.65650    -0.39766    -1.33476
H      0.81077    -0.02440    -1.63074
O     -0.71018     1.30505    -1.93988
H     -1.52363     1.73466    -1.59480
O     -1.22533     0.37034    -2.87474
H     -1.56345    -0.32349    -2.28408
O      3.98950    -0.04323     1.05998
H      4.78594    -0.58321     1.05923
O      3.96065     0.47007    -0.26825
H      3.20419    -0.02107    -0.64825
O     -0.75362     1.65667     1.35358
H      0.09850     1.85808     0.89927
O     -0.80225     0.23492     1.24481
H      0.08656    -0.06100     1.57460
O     -3.18999     1.91065     0.32832
H     -2.31866     1.88920     0.78311
O     -2.84003     2.52068    -0.91057
H     -3.04374     3.44898    -0.75784
O      1.53242    -2.04351     1.44336
H      0.62514    -2.33327     1.68078
O      1.55551    -0.70996     1.96601
H      2.44116    -0.41532     1.66747
O     -1.00427    -2.79479     1.69956
H     -1.90808    -2.93140     2.01031
O     -0.96671    -3.50644     0.45944
H     -1.33819    -2.83654    -0.14527
