 32
-1213.315008455721
O     -1.00257    -1.81601     0.73835
H     -1.26841    -1.29654    -0.04669
O     -0.23451    -2.86953     0.15784
H      0.53946    -2.89044     0.73684
O      0.70185    -1.99838    -2.13974
H      0.33441    -2.42617    -1.33746
O      1.89221    -1.43157    -1.59891
H      1.67653    -0.47639    -1.51111
O     -1.00037     0.01547    -2.56168
H     -0.39973    -0.75880    -2.57812
O     -1.63887    -0.17772    -1.30143
H     -1.49594     0.68322    -0.87431
O     -1.67745     2.68800    -0.31515
H     -1.34650     3.50697    -0.70111
O     -1.37741     2.87510     1.07148
H     -2.09350     2.35748     1.47091
O      0.73548     2.04129    -2.09762
H      0.08612     1.39685    -2.43460
O      1.53990     1.17155    -1.30092
H      1.35019     1.46814    -0.38652
O      2.69381    -1.29226     1.36966
H      3.62137    -1.28108     1.62261
O      2.55963    -2.53860     0.70055
H      2.45864    -2.21914    -0.22251
O      0.61159     0.35869     1.78967
H      1.38022    -0.20756     1.58232
O      1.02901     1.63555     1.30164
H      0.19390     2.13470     1.38095
O     -1.91009     0.54723     2.73191
H     -1.03454     0.32330     2.36640
O     -2.75248     0.34633     1.60020
H     -3.23543    -0.45370     1.84241
