 32
-1213.313201051648
O      2.44347     0.09439     1.34802
H      2.38632    -0.25041     0.43711
O      2.37066     1.50269     1.11874
H      1.40142     1.65868     1.03984
O     -1.19085    -2.79869    -1.23508
H     -1.65935    -1.95434    -1.38825
O     -1.78458    -3.18810    -0.00039
H     -1.39349    -4.05645     0.12684
O     -1.04244     0.56466    -1.40818
H     -0.30797    -0.03297    -1.66390
O     -2.15051    -0.34139    -1.38961
H     -2.67480     0.01974    -0.64115
O     -0.22055     1.97745     0.72404
H     -0.58955     1.43739    -0.00739
O     -1.07426     1.65886     1.82516
H     -0.70612     0.79258     2.10113
O      3.79741     1.78853    -1.14405
H      3.28651     1.80816    -0.30816
O      2.72101     1.78057    -2.09001
H      3.11381     2.26024    -2.82569
O      2.14274    -0.65933    -1.21779
H      2.47660     0.11123    -1.72427
O      1.00604    -1.04773    -1.98803
H      0.72031    -1.84750    -1.52032
O      0.07399    -1.38141     0.85450
H     -0.79454    -1.80896     0.78857
O      0.06064    -0.74797     2.14510
H      0.99435    -0.45574     2.14235
O     -3.77840    -0.19791     1.66804
H     -4.68715     0.07508     1.82697
O     -3.36593     0.78476     0.72132
H     -2.66099     1.25885     1.21497
