 36
-1364.9725360233856
O      2.09833     0.19868     1.81144
H      2.48764    -0.24102     1.03899
O      2.07451     1.56763     1.38782
H      1.14271     1.82414     1.58429
O     -3.20902     0.20219     1.22897
H     -2.96473     0.07042     0.28888
O     -3.12455     1.62035     1.34013
H     -3.93517     1.83718     1.80969
O      2.65340    -1.13193    -0.84025
H      2.55897    -0.23096    -1.21400
O      1.44410    -1.75775    -1.27364
H      1.20458    -2.29758    -0.49185
O      0.49293    -0.23011    -3.21004
H      0.75569    -0.92444    -2.56911
O     -0.83158    -0.64808    -3.52533
H     -0.84659    -0.50039    -4.47418
O      1.21708     2.04471    -1.83890
H      0.89360     1.28916    -2.36246
O      2.41674     1.50409    -1.27847
H      2.32244     1.75248    -0.33740
O     -0.36486    -0.74008     1.44951
H      0.49255    -0.44671     1.82995
O     -1.17837    -0.94420     2.59811
H     -2.00851    -0.58981     2.23699
O     -2.19129    -0.36820    -1.20173
H     -1.95341    -0.55625    -2.12355
O     -0.99822     0.35845    -0.87395
H     -0.68761    -0.10919    -0.06336
O     -0.48087     2.20485     1.48795
H     -1.44211     2.04558     1.39953
O     -0.23790     3.24124     0.54599
H      0.00650     2.73743    -0.24529
O      0.89376    -3.27393     0.88626
H      1.27997    -4.12068     1.13104
O     -0.50669    -3.48390     1.09838
H     -0.67293    -2.81680     1.77987
