 28
-1061.648788576127
O      0.34240    -0.51245    -2.74910
H     -0.61040    -0.64176    -2.87814
O      0.50927    -1.35530    -1.60416
H      1.47058    -1.28539    -1.44845
O      0.71600    -0.71194     1.29336
H      0.05994    -0.63242     2.01879
O      1.93540    -0.61041     2.03698
H      2.55997    -0.50747     1.30475
O     -1.14839    -0.26730     3.16646
H     -1.23047    -0.48833     4.09945
O     -1.47390     1.12487     3.14603
H      0.74920     0.87619    -1.74328
O     -1.89074    -1.27975    -0.53042
H     -0.92834    -1.38669    -0.65351
O     -2.23877    -0.77108    -1.82733
H     -2.35495     0.17607    -1.59853
O     -2.66021     0.94565     0.57019
H     -2.44529     0.00431     0.39172
O     -2.13691     1.54481    -0.61746
H     -1.18513     1.64108    -0.39528
O      0.45070     1.58287     0.01300
H      0.63207     0.74335     0.50235
O      1.26810     1.46390    -1.15695
H     -2.05341     1.15309     2.36784
O      3.11275    -1.05965    -1.20880
H      3.83555    -0.97252    -1.83831
O      3.35042     0.01931    -0.30496
H      2.68743     0.66705    -0.63197
