 20
-758.3092269863453
O     -1.03000    -0.51026     0.91523
H     -1.48574    -0.90574     0.13755
O     -1.26421     0.87823     0.63998
H     -0.65878     1.02727    -0.11105
O      0.25282     0.09058    -2.28535
H      0.73736    -0.50556    -1.69413
O      0.32837     1.32014    -1.54665
H      1.28164     1.40524    -1.38295
O      1.17413     0.31109     2.19407
H      0.30841    -0.01358     1.86345
O      1.64882    -0.83128     2.90303
H      1.64524    -0.50215     3.80679
O      2.02089    -0.92215    -0.44310
H      2.34669    -1.46803     0.28301
O      2.53575     0.38169    -0.12611
H      2.10856     0.53346     0.73968
O     -3.30163     0.15538    -1.23229
H     -2.94466     0.65481    -0.48443
O     -2.29090    -0.85126    -1.36934
H     -1.66605    -0.43365    -1.98234
