 32
-1213.3083501807973
O      0.96181    -1.11340     1.53377
H      0.86846    -1.41682     0.61342
O     -0.29060    -1.56840     2.07935
H     -0.64093    -0.74046     2.45316
O      0.54372    -2.27208    -3.10679
H      0.18458    -2.48980    -2.22453
O     -0.36602    -1.22417    -3.45480
H     -0.53434    -1.40535    -4.38313
O     -1.03995    -3.34178     0.07597
H     -0.90636    -2.99217     0.96707
O     -0.49164    -2.24587    -0.65533
H     -1.20134    -1.56637    -0.55729
O     -2.27897    -0.41178    -0.08414
H     -2.38036     0.07892     0.75035
O     -2.50651     0.61340    -1.06014
H     -1.59357     0.88629    -1.27679
O      2.83825     2.63470    -0.14010
H      3.63899     3.10562    -0.39195
O      3.20242     1.28177    -0.43030
H      2.49396     1.05157    -1.05501
O      0.03977     1.46180    -1.49448
H      0.29010     1.62706    -0.56130
O      0.93068     0.37730    -1.79063
H      0.41042    -0.14361    -2.44410
O     -2.46004     1.07890     2.20743
H     -3.10888     1.21556     2.90408
O     -1.26962     0.83096     2.95611
H     -0.68824     1.53030     2.61276
O      1.33764     2.22518     2.11106
H      2.08457     2.54929     1.58430
O      0.70779     1.45901     1.09262
H      0.98246     0.53213     1.30655
