 36
-1364.9747338520217
O      2.15598     0.89749     1.78357
H      2.26404     1.42873     0.97082
O      3.33172     0.09186     1.79068
H      2.96026    -0.76253     1.52308
O     -1.20246    -2.73708     0.90737
H     -1.10795    -1.88632     1.36538
O     -2.18596    -2.46576    -0.07805
H     -1.67345    -2.37373    -0.90027
O     -0.61563     2.66980     0.22875
H      0.13029     3.09315    -0.23374
O     -1.74126     3.07655    -0.55886
H     -2.36086     2.37350    -0.33005
O     -2.26116     0.33440     0.17092
H     -2.04826     0.35284     1.11904
O     -3.58803    -0.20404     0.14782
H     -3.37335    -1.14856     0.05616
O     -1.09180    -2.26616    -2.52838
H     -1.27898    -2.89473    -3.23246
O      0.29492    -2.01301    -2.71854
H      0.67571    -2.44097    -1.91764
O     -0.86914     0.92688     2.72120
H     -0.58633     1.62858     2.11764
O     -0.21558    -0.20573     2.16562
H      0.72677     0.09297     2.08605
O      2.22232     2.36322    -0.54613
H      1.89358     1.79556    -1.26159
O      1.62929     3.61183    -0.90016
H      2.28970     4.22558    -0.56737
O      0.79759     0.62288    -2.11085
H      0.60359    -0.22848    -2.54251
O      0.51099     0.22946    -0.76646
H     -0.33202     0.69794    -0.57492
O      1.10569    -2.93174    -0.35404
H      0.30212    -3.12453     0.17506
O      1.64336    -1.83461     0.38275
H      1.20326    -1.07495    -0.05606
