 40
-1516.641865077506
O      1.04067     1.74129     0.31981
H      1.77094     1.57992    -0.30609
O      1.59304     1.00306     1.42556
H      1.07320     1.36231     2.16713
O      2.92026     0.49277    -0.99838
H      2.75168     0.19977    -1.91853
O      2.94240    -0.74150    -0.27208
H      2.54729    -0.45098     0.56498
O     -2.47170     1.35299     1.98179
H     -2.49672     1.59570     1.02966
O     -2.92072    -0.00644     1.88855
H     -2.16026    -0.49441     2.27539
O     -0.21608     1.84414     3.28319
H     -1.08973     1.62525     2.87458
O     -0.17331     0.97666     4.41160
H     -0.51498     1.53098     5.11874
O      0.97988    -0.61877    -3.51677
H      1.14132    -1.43356    -2.97102
O      2.30484    -0.07118    -3.54140
H      2.73121    -0.58200    -4.23516
O     -0.87548    -1.42272    -1.21104
H     -1.81260    -1.19035    -1.35093
O     -0.62243    -0.65467    -0.03616
H     -0.16886     0.13076    -0.39768
O     -0.05911     2.48508    -2.41319
H      0.06593     2.73593    -1.48871
O     -0.62068     1.18646    -2.22257
H     -0.08841     0.61720    -2.81770
O      0.20264    -1.58574     2.30682
H     -0.10064    -1.27316     1.43345
O     -0.91807    -1.23538     3.11847
H     -0.52289    -0.56138     3.70055
O      1.86579    -2.53498    -1.97663
H      2.34147    -2.06719    -1.26198
O      0.97669    -3.37012    -1.23493
H      0.20746    -2.77717    -1.17683
O     -2.72000     1.29659    -0.63926
H     -1.99896     1.27369    -1.29907
O     -3.17195    -0.06531    -0.75152
H     -3.25763    -0.26802     0.19889
