 40
-1516.6583092132787
O      3.18445    -1.90704    -0.67898
H      3.14158    -2.79071    -0.24953
O      2.62036    -2.18826    -1.96237
H      2.32448    -1.28812    -2.22582
O     -0.57948     0.88738     2.44109
H     -0.79343     1.84341     2.51601
O     -1.78932     0.33144     1.93767
H     -1.60455     0.28693     0.98612
O     -1.32776     3.78778     1.02986
H     -0.52105     3.30794     0.73682
O     -1.29516     3.51811     2.43836
H     -2.24817     3.38708     2.58637
O      1.59901    -0.12650     0.50111
H      2.24976    -0.72693     0.06689
O      0.94435    -1.02087     1.40331
H      0.45995    -0.36429     1.94765
O     -3.51628     2.40536     0.54728
H     -2.73929     2.99733     0.50385
O     -3.61112     2.25956     1.96975
H     -3.13533     1.41839     2.08458
O      0.68823     2.33760     0.17831
H      1.01582     1.41997     0.30994
O      0.66829     2.43781    -1.24384
H     -0.28290     2.34036    -1.43735
O     -2.08301     0.55348    -0.99277
H     -2.89090     1.00662    -0.69867
O     -1.68812     1.39436    -2.07768
H     -1.15575     0.75336    -2.58759
O     -0.22663    -2.11229    -0.70298
H      0.21109    -1.87223     0.14347
O      0.41399    -3.34125    -1.04897
H      1.20732    -3.00039    -1.51432
O      0.18696    -0.37742    -2.69440
H      0.03768    -0.99462    -1.94538
O      1.47641     0.15637    -2.39967
H      1.25413     1.02590    -2.00159
O      2.94089    -4.25711     0.53257
H      3.14008    -5.13729     0.19987
O      1.64478    -4.41333     1.10960
H      1.08489    -4.08181     0.37679
