 32
-1213.312184308765
O      1.54546     1.18004     2.59722
H      1.43034     0.44876     1.95132
O      1.76226     2.30915     1.73849
H      1.05778     2.89959     2.04735
O     -0.99822    -2.92623    -1.14966
H     -0.74643    -2.81490    -0.21878
O     -2.22819    -2.21437    -1.27567
H     -1.93843    -1.39253    -1.70366
O     -0.24807     0.59338    -3.21186
H      0.16277    -0.29198    -3.22143
O     -1.13838     0.43074    -2.09725
H     -0.64502     0.89313    -1.39850
O     -2.59889    -1.26378     1.23308
H     -2.79125    -1.58779     0.34049
O     -1.70728    -0.19060     0.88927
H     -1.84331     0.43341     1.62080
O      0.79270     1.67402    -0.70078
H      1.28699     1.90569     0.11003
O      1.84535     1.20464    -1.55133
H      1.43498     1.40221    -2.40489
O      0.88519    -1.75250    -2.63754
H      0.24271    -2.25965    -2.10157
O      1.91804    -1.50605    -1.68224
H      1.93780    -0.53346    -1.63698
O      1.03535    -2.14216     0.75318
H      1.55676    -2.14817    -0.06871
O      0.88328    -0.72883     0.88212
H     -0.07855    -0.61715     0.72962
O     -1.10073     1.66780     3.19937
H     -0.17763     1.35999     3.27140
O     -0.88215     2.99234     2.69956
H     -1.16305     3.52200     3.45214
