 20
-758.3166111334422
O     -1.13786    -1.80707     1.14242
H     -0.79653    -1.78958     0.23058
O     -1.69174    -0.49091     1.26134
H     -0.90560    -0.02245     1.60648
O      1.76054     1.50231    -1.46683
H      1.82074     0.53302    -1.42438
O      1.07128     1.76499    -0.24574
H      0.15858     1.88072    -0.56215
O      0.75470     0.28134     1.91695
H      1.05164     0.80596     1.14144
O      1.43107    -0.96706     1.71247
H      0.70536    -1.57289     1.92432
O      0.09284    -1.50884    -1.20820
H     -0.28887    -0.69991    -1.57876
O      1.45707    -1.15188    -0.98244
H      1.49696    -1.16111    -0.00703
O     -1.51481     1.78321    -0.95570
H     -2.17219     2.33459    -1.38986
O     -1.99302     0.47046    -1.22956
H     -2.10986     0.12687    -0.31967
