 40
-1516.6409639846702
O      2.21648     0.34673    -2.63943
H      1.30543     0.18563    -2.93359
O      2.75051    -0.96840    -2.48199
H      2.09340    -1.40540    -1.91017
O      0.15767    -2.10093     1.77398
H     -0.69713    -1.60627     1.68177
O      0.91858    -1.35935     2.72923
H      0.56802    -0.45912     2.64212
O     -0.47806     1.39108     2.78661
H     -0.58690     1.76699     1.89062
O     -1.83504     1.36394     3.23238
H     -1.72844     1.47421     4.18075
O      1.54141     0.53234     0.44243
H      2.43766     0.16591     0.64675
O      1.83618     1.67279    -0.37014
H      2.06597     1.22751    -1.22316
O     -3.21461    -1.37682     1.44066
H     -3.33038    -1.41587     0.47305
O     -2.00200    -0.60166     1.44136
H     -2.18372     0.09827     2.10289
O     -0.80610     1.83200     0.12025
H      0.10679     1.97530    -0.22475
O     -1.54530     2.96644    -0.31917
H     -1.58517     2.76805    -1.26373
O     -0.70652     0.73425    -3.11329
H     -1.48543     0.50953    -2.54839
O     -0.83395     2.15511    -3.24406
H     -1.16272     2.24271    -4.14390
O     -0.14326    -1.08738    -0.79751
H      0.32707    -0.38605    -0.28290
O      0.85540    -2.10770    -0.79839
H      0.85765    -2.32273     0.15810
O     -2.70892    -1.19630    -1.23336
H     -1.74761    -1.36675    -1.11210
O     -2.70139     0.23185    -1.35677
H     -2.32979     0.48449    -0.49016
O      3.75278    -0.68185     1.20916
H      4.56238    -0.91484     0.74310
O      3.06152    -1.93315     1.24277
H      2.38962    -1.75069     1.92866
