 28
-1061.641154901283
O     -1.61095     0.79875     0.56919
H     -1.91697     0.77427     1.48860
O     -1.45568    -0.62042     0.34940
H     -1.59494    -0.65808    -0.62997
O      1.12685    -1.75870     1.54109
H      0.54621    -1.47996     0.81388
O      1.06304    -0.63040     2.42082
H      0.21639    -0.75087     2.88334
O     -2.18340     0.11961     3.08236
H     -2.99811     0.06637     3.59333
O     -1.72738    -1.23755     3.09530
H     -0.85763     0.44819    -2.47657
O      0.52691     1.41344    -2.77261
H      0.96917     1.58313    -3.61169
O      0.23767     2.71987    -2.27334
H      0.71548     2.68398    -1.43068
O      1.41355    -0.95867    -1.15739
H      1.53203    -0.05877    -0.77439
O      2.70305    -1.52125    -0.95514
H      2.63805    -1.74961    -0.01508
O     -0.82953    -1.45481    -2.57829
H      0.03831    -1.33833    -2.14736
O     -1.50208    -0.24588    -2.22483
H     -1.83230    -1.45052     2.15657
O      0.75895     2.12248     0.58166
H     -0.08794     1.63231     0.53505
O      1.73179     1.07408     0.47401
H      1.59019     0.57149     1.30944
