 32
-1213.310883751038
O      2.15452     1.31868     1.63289
H      2.14734     0.45519     1.19132
O      2.34544     2.20803     0.51746
H      1.51532     2.70954     0.58939
O     -1.03376    -2.16597    -1.73423
H     -1.09683    -1.32953    -2.22977
O     -1.86166    -1.81662    -0.61284
H     -1.27228    -2.04548     0.13764
O     -0.83172     0.39755    -2.35260
H      0.11360     0.57018    -2.50069
O     -0.87228     0.70402    -0.95497
H     -1.69346     0.27101    -0.66090
O     -0.27185     2.57164     0.90706
H     -0.57593     2.07023     0.12845
O     -0.56531     1.62760     1.94508
H      0.32245     1.41553     2.28089
O      1.74781     1.05178    -1.98276
H      2.27282     1.50494    -1.29898
O      2.71655     0.48703    -2.87081
H      2.73788    -0.42677    -2.54989
O      1.60986    -1.84994    -1.16778
H      0.68301    -2.11920    -1.34735
O      1.45836    -0.96040    -0.05990
H      0.92777    -0.24704    -0.45834
O     -0.53059    -1.30927     2.52276
H     -1.48354    -1.13175     2.41452
O     -0.30787    -2.25576     1.46238
H      0.53549    -1.93501     1.08576
O     -2.87484     0.56018     1.09330
H     -2.10843     0.93689     1.56578
O     -3.09141    -0.63894     1.84806
H     -3.22668    -1.26776     1.12905
