 36
-1364.98190477968
O      3.20630     2.47137     0.10555
H      3.47057     3.36527    -0.12410
O      2.22357     2.23361    -0.90390
H      2.03847     1.27812    -0.75157
O     -1.96878     0.20804    -2.25470
H     -1.32794     0.89754    -2.53242
O     -1.05436    -0.81835    -1.86186
H     -1.65338    -1.48374    -1.48487
O     -2.46833    -2.52071     0.11572
H     -2.22969    -2.38265     1.05988
O     -1.32005    -3.23931    -0.32205
H     -1.70762    -4.07062    -0.60905
O     -0.93397     3.01617    -1.91817
H     -1.15728     2.64041    -1.04151
O     -0.05610     2.02031    -2.44398
H      0.79912     2.27545    -2.05106
O     -1.31243    -1.97407     2.46465
H     -0.36811    -2.10800     2.24367
O     -1.32026    -0.55882     2.68376
H     -1.73622    -0.23015     1.86279
O     -1.38885     1.86973     0.45906
H     -0.51567     1.58258     0.79486
O     -2.07269     0.61171     0.38214
H     -2.22143     0.52765    -0.58435
O      2.20788    -1.12279    -1.52507
H      2.12418    -1.87538    -0.91360
O      1.33486    -0.22233    -0.84750
H      0.48075    -0.37986    -1.31174
O      1.27904    -2.76098     0.37498
H      0.34702    -2.92170     0.15206
O      1.16727    -1.90985     1.51669
H      1.26218    -1.02777     1.11394
O      1.54489     2.08419     2.26600
H      2.21465     2.18339     1.57337
O      0.79437     1.00786     1.69462
H      0.36792     0.61612     2.47317
