 36
-1364.9708636362413
O      0.50350    -2.92005    -0.70203
H     -0.26401    -3.10084    -0.14006
O      0.82913    -1.60606    -0.27884
H      0.45897    -1.03000    -0.99426
O     -3.54605    -1.09303    -0.95316
H     -3.40587    -1.56266    -1.77913
O     -2.27599    -1.30209    -0.32651
H     -2.51544    -1.64910     0.55380
O     -0.04711     0.05155    -2.24422
H      0.52028     0.85383    -2.26423
O     -1.32907     0.61395    -1.92263
H     -1.64909     0.00394    -1.22586
O     -0.82469     3.48907    -0.59306
H     -1.62963     3.87120    -0.22472
O     -1.18422     3.29065    -1.96198
H     -1.30509     2.31688    -1.96705
O     -1.64599    -3.59787     1.48071
H     -1.75900    -4.31111     2.12082
O     -1.92205    -2.43430     2.27143
H     -1.00924    -2.13597     2.48486
O      0.09616     1.27594     0.54051
H     -0.19705     2.11532     0.12149
O     -0.65804     1.30369     1.76017
H     -0.09420     0.72798     2.30704
O      2.92575     1.81831    -2.14625
H      3.17137     1.70182    -1.21437
O      1.54681     2.16750    -1.99299
H      1.50266     3.09558    -2.26177
O      0.69020    -1.81564     2.36071
H      0.78215    -1.67936     1.39094
O      1.01658    -0.52168     2.87349
H      1.89091    -0.35672     2.46657
O      3.02628    -0.12201     1.14116
H      2.69730    -0.68820     0.42587
O      2.72662     1.19026     0.66496
H      1.74133     1.20211     0.65022
