 32
-1213.312028601981
O     -1.74294    -2.66718     0.73047
H     -2.22475    -2.16665     0.05135
O     -0.62550    -1.80295     0.94020
H     -0.06165    -1.99152     0.15656
O      0.91675    -2.09245    -1.25487
H      1.86171    -1.91989    -1.12966
O      0.56576    -1.00770    -2.12293
H     -0.38872    -1.18379    -2.24644
O     -2.07137    -1.35796    -2.43563
H     -2.66481    -0.97851    -3.09067
O     -2.66293    -0.94143    -1.20620
H     -2.10619    -0.14128    -0.99852
O     -1.12851     1.07650    -0.70833
H     -0.30006     1.04726    -0.17594
O     -1.89165     1.99748     0.07263
H     -2.10910     1.45781     0.84941
O      2.18865     1.38641    -1.64103
H      1.36062     0.99335    -1.95434
O      1.77120     2.65716    -1.14204
H      1.51774     2.43154    -0.23042
O      3.00566    -0.43057     0.91450
H      3.86757    -0.24129     1.30121
O      3.31996    -0.72590    -0.44700
H      3.04593     0.11024    -0.88236
O      0.89532     1.12761     0.90447
H      1.61711     0.46873     0.99423
O      0.86916     1.73168     2.19206
H      0.13477     1.21195     2.56851
O     -1.13724     0.06453     2.74705
H     -1.02726    -0.67922     2.11120
O     -2.40564     0.57136     2.35682
H     -2.78558     0.81283     3.20547
