 36
-1364.969129767518
O      2.23399     0.61443     0.27676
H      1.92279    -0.26343    -0.00541
O      2.76995     1.18404    -0.91507
H      2.04380     1.77303    -1.17388
O      0.68253    -1.67745     1.08128
H      0.32269    -0.91149     1.57663
O     -0.48710    -2.19040     0.43214
H     -0.40924    -1.79949    -0.46439
O      1.65543     2.24299     2.91125
H      1.91923     2.69771     3.71631
O      2.61678     1.17942     2.85327
H      2.60859     1.01878     1.89095
O     -0.03989     1.62018    -0.97975
H     -0.30389     1.59263    -0.03251
O     -0.90673     2.60817    -1.51388
H     -1.75596     2.14867    -1.40437
O     -0.30507    -0.86002    -1.88208
H     -0.08268     0.07647    -1.66793
O      0.28829    -1.02747    -3.16275
H      1.09219    -1.49953    -2.90342
O     -4.09142     0.27918    -1.17360
H     -4.03554    -0.39063    -0.47680
O     -2.70934     0.62927    -1.28311
H     -2.38267     0.07269    -2.00436
O     -0.23689     0.50165     2.27700
H      0.37625     1.22742     2.53016
O     -1.14640     1.16152     1.38315
H     -1.84253     0.48159     1.32697
O      2.32596    -1.97411    -1.23590
H      2.39225    -2.61034    -0.51116
O      3.69234    -1.76109    -1.62279
H      3.74560    -0.80449    -1.48975
O     -3.75868    -1.63528     0.84140
H     -4.40440    -1.65017     1.55173
O     -2.63195    -1.10483     1.53389
H     -1.91147    -1.70120     1.22853
