 40
-1516.639424262499
O      2.49097     0.55927    -3.39308
H      2.47441    -0.34928    -3.04540
O      1.69235     0.39876    -4.56776
H      2.18588     0.92254    -5.20501
O     -1.68527    -2.56106    -0.03494
H     -0.87989    -2.80032    -0.51669
O     -1.62619    -1.14310    -0.04212
H     -0.80769    -0.94614     0.45982
O      1.21028     1.17665     3.29347
H      1.00060     1.68127     2.48853
O     -0.07557     0.62492     3.62400
H     -0.00032    -0.26930     3.23826
O     -0.37025    -0.00581    -2.90349
H      0.24420     0.38025    -3.55718
O     -0.58961     1.10881    -2.03194
H     -1.56387     1.09850    -1.91242
O     -1.98939     1.60069     2.03824
H     -1.46505     1.31814     2.82217
O     -2.99811     0.60452     1.95271
H     -2.70737     0.06907     1.19836
O      0.63055     0.75755     0.27237
H      0.27808     0.87159    -0.65127
O      0.41960     2.04831     0.85258
H     -0.53365     1.97864     1.05037
O     -3.20779     1.25562    -1.25302
H     -4.02880     1.33593    -1.75157
O     -3.15681     2.48255    -0.52468
H     -3.32573     2.16925     0.37705
O      0.92472    -1.90244    -1.47212
H      0.43051    -1.24750    -2.00904
O      2.26162    -1.73411    -1.95367
H      2.72974    -1.49722    -1.13648
O      0.06197    -3.00394     2.27968
H     -0.80534    -3.05688     1.85712
O      0.29582    -1.60526     2.12193
H      1.22139    -1.55168     1.80610
O      2.85323    -0.75575     1.70419
H      2.69330     0.02925     2.25216
O      3.05678    -0.20698     0.39866
H      2.19701     0.23756     0.24036
