 36
-1364.9714537197515
O      1.69525     2.07575    -1.73313
H      1.84128     1.21156    -2.14875
O      2.43751     1.99948    -0.52124
H      1.90037     1.37985     0.00970
O      0.31389    -0.01284    -3.19306
H     -0.38635     0.51643    -2.78788
O      0.10124    -1.28086    -2.57822
H      1.01658    -1.57229    -2.39636
O     -3.42700     0.71114     0.56658
H     -3.12291     0.19022    -0.18749
O     -2.99185    -0.14283     1.62908
H     -2.46538     0.47638     2.16217
O      2.53944    -1.98895    -1.60618
H      2.17718    -2.44167    -0.81940
O      3.23901    -0.89527    -1.02447
H      4.14175    -1.07233    -1.30594
O      0.87196    -0.23189     2.03354
H      0.57954     0.53121     2.56094
O      0.74768     0.33768     0.72460
H     -0.05080    -0.11614     0.37096
O     -0.38243     2.13554     2.55101
H     -0.55762     2.35481     1.61040
O     -1.67466     1.72930     2.99006
H     -2.01270     2.51941     3.42403
O     -1.24261     2.47152     0.06325
H     -2.15592     2.16409     0.14570
O     -0.88763     1.94633    -1.21914
H      0.06592     2.18473    -1.27565
O     -1.78453    -2.10337     0.20456
H     -2.21297    -1.71029     0.98157
O     -1.34963    -0.88955    -0.42339
H     -0.91597    -1.22140    -1.24228
O      0.73217    -3.01037     0.17750
H     -0.23305    -2.89120     0.27461
O      1.18041    -2.95525     1.53689
H      1.17470    -1.99987     1.70147
