 24
-909.9716157146651
O     -1.44071    -2.10816     0.39777
H     -1.85192    -2.97776     0.41467
O     -2.26748    -1.35481     1.30081
H     -1.93214    -0.46254     1.08654
O     -0.13134    -1.57760    -2.54887
H      0.70280    -1.25496    -2.15918
O     -1.07662    -0.75248    -1.86526
H     -1.25666    -1.27816    -1.05353
O      1.71294    -0.36369     0.01917
H      0.74485    -0.37496     0.07347
O      1.95106    -0.28753    -1.38028
H      1.66366     0.61206    -1.60019
O      0.05783     1.52310    -2.57259
H     -0.49563     0.72356    -2.41414
O     -0.42721     2.38636    -1.54440
H     -0.91400     3.05322    -2.03916
O      2.33150     0.30024     2.62220
H      2.26250     0.11039     1.67346
O      1.06614    -0.23775     3.03286
H      1.13043    -0.16332     3.99013
O     -0.50817     1.50833     1.70768
H     -0.00742     0.78787     2.13529
O     -0.95783     0.82729     0.53002
H     -0.78598     1.48622    -0.17471
