 36
-1364.9828959817996
O      1.18042     2.70209     0.42556
H      1.95859     2.59359     1.01178
O      1.67040     2.09138    -0.77139
H      0.84781     1.89805    -1.27027
O     -2.18373    -1.76705    -3.15015
H     -2.79531    -2.21492    -3.74029
O     -3.07969    -1.13640    -2.24799
H     -2.63920    -0.26439    -2.14203
O      2.19953     1.61988     3.04544
H      2.07493     0.65752     2.92224
O      3.13955     1.86101     2.00209
H      3.93660     2.10663     2.48194
O     -1.81417     1.11517    -1.61271
H     -1.83217     1.30252    -0.64693
O     -0.43316     0.89014    -1.86215
H     -0.27435    -0.01156    -1.51242
O     -2.43276    -1.34552     0.95729
H     -1.86183    -1.86476     0.35314
O     -3.74235    -1.58862     0.45124
H     -3.63106    -1.41276    -0.49364
O     -0.63354     1.21453     1.71702
H     -0.10779     1.88230     1.22528
O     -1.88543     1.23339     1.03611
H     -2.17536     0.29439     1.13511
O      3.18591    -0.68340    -1.54480
H      2.46791    -1.31194    -1.68191
O      2.88090    -0.21735    -0.23797
H      2.53704     0.68920    -0.41471
O      1.88028    -0.88731     2.13149
H      2.36720    -0.74552     1.29539
O      0.55993    -1.12887     1.65180
H      0.11958    -0.26029     1.80555
O      0.24954    -1.52618    -0.92365
H      0.44642    -1.47710     0.04670
O     -0.87687    -2.40614    -0.91623
H     -1.22779    -2.28670    -1.82120
