 32
-1213.3180598235983
O      3.27572     1.00482     0.15927
H      3.54424     1.08963    -0.76748
O      2.29804     2.05663     0.23052
H      1.61344     1.62870     0.78164
O     -0.52449    -2.25900     0.14724
H      0.34644    -1.92644     0.43884
O     -0.37209    -2.26332    -1.26779
H     -0.74581    -1.39444    -1.52202
O     -1.03699     0.20004    -2.08129
H     -0.23530     0.57264    -2.48900
O     -1.12826     1.06967    -0.94838
H     -2.06624     0.96519    -0.64501
O      0.25725     0.67838     1.24372
H     -0.29397     0.78781     0.43721
O     -0.62422     1.14924     2.25884
H     -0.82876     0.29679     2.67698
O      1.35214     1.35170    -2.49555
H      1.45659     1.92517    -1.72158
O      2.63156     0.72358    -2.57140
H      2.42823    -0.18653    -2.27811
O      1.96423    -1.37349    -0.00431
H      2.45628    -0.53476     0.10943
O      2.20982    -1.67205    -1.38825
H      1.34179    -2.06871    -1.60314
O     -2.38522    -1.56376     1.90222
H     -1.81650    -1.93282     1.19527
O     -1.39555    -1.34146     2.90550
H     -1.81186    -1.74552     3.67031
O     -3.07953     1.74984     1.24973
H     -2.17449     1.64515     1.59380
O     -3.26531     0.57493     0.46463
H     -3.14809    -0.14538     1.10866
