 36
-1364.973770946863
O      2.31780    -0.06877     1.27553
H      2.75172    -0.13542     0.40036
O      1.91322    -1.41090     1.53456
H      1.36509    -1.26816     2.31483
O     -1.10653     2.26454    -1.73607
H     -1.16473     3.08881    -2.23324
O     -0.53563     1.36439    -2.68307
H      0.41587     1.43885    -2.48232
O     -2.03609    -0.42519     3.20507
H     -2.57284    -0.42426     2.39627
O     -0.74210    -0.61486     2.64321
H     -0.66484     0.18413     2.07521
O      3.12096     0.40995    -1.23131
H      3.20178     1.37666    -1.29755
O      2.06555     0.15762    -2.16040
H      1.51366    -0.48260    -1.67117
O     -3.82819    -1.60387     0.07063
H     -3.37662    -2.40586     0.35902
O     -2.80895    -0.62632     0.30161
H     -2.19149    -0.79610    -0.44612
O      0.61586     1.86696     0.59221
H      1.18861     1.12452     0.89035
O     -0.68583     1.42834     0.99439
H     -1.14762     1.41257     0.14103
O     -1.04898    -1.12851    -1.66311
H     -0.86154    -0.32354    -2.18232
O      0.22029    -1.36631    -1.03962
H     -0.05233    -1.86900    -0.24181
O      1.72423     3.02186    -1.51566
H      1.29200     2.71028    -0.69634
O      3.07335     3.11247    -1.05749
H      3.42982     3.78058    -1.65042
O     -1.76361    -3.69812     1.28010
H     -1.23310    -4.49160     1.36452
O     -0.73904    -2.73635     1.06373
H     -0.88029    -2.08930     1.79537
