 24
-909.9823193525323
O     -2.06342     0.26006     0.93634
H     -2.42328     0.32398     0.03137
O     -1.36117    -0.98631     0.79135
H     -0.74347    -0.93921     1.54461
O      0.66274     0.00094    -2.66515
H     -0.01473    -0.68493    -2.50544
O     -0.12343     1.17421    -2.40077
H      0.21995     1.43706    -1.52548
O      2.71459    -0.54657    -0.74041
H      2.14362    -0.47621    -1.51890
O      1.72547    -0.91043     0.23014
H      2.25991    -1.23652     0.96856
O     -1.53230    -1.24771    -1.83666
H     -1.35015    -1.40765    -0.89242
O     -2.34337    -0.06359    -1.70204
H     -1.72245     0.58764    -2.08382
O      1.29205     0.05004     2.97136
H      0.89243     0.79054     2.46632
O      0.22465    -0.89611     2.94431
H     -0.12507    -0.84165     3.84108
O      0.84033     1.60452     0.05923
H      1.29780     0.75483     0.21427
O      0.12464     1.80296     1.28375
H     -0.72735     1.35181     1.10823
