 20
-758.310142007166
O     -1.07615    -2.13832     0.58797
H     -1.05007    -2.84906     1.23502
O      0.25819    -1.64335     0.63775
H      0.15277    -0.76985     1.07896
O      2.53359     0.81521    -0.18024
H      2.11396     0.48831    -1.00277
O      3.12121    -0.35154     0.37994
H      2.37808    -0.96753     0.43382
O      0.48496     0.85217     1.47894
H      1.36473     1.02895     1.07502
O     -0.32743     1.72146     0.67317
H     -1.20647     1.30605     0.81066
O     -2.98195     0.37154    -0.65958
H     -2.18267     0.52893    -1.18539
O     -2.45602     0.16655     0.64536
H     -2.15035    -0.75856     0.61216
O      0.76132    -0.24204    -1.85546
H      0.34079    -0.93396    -1.32435
O     -0.23067     0.79293    -1.86253
H     -0.05303     1.26468    -1.02650
