 28
-1061.640676462146
O     -1.45061    -2.80187     2.35041
H     -0.49236    -2.92431     2.42189
O     -1.52615    -1.52367     1.72265
H     -1.60679    -1.73835     0.77459
O      0.99872    -0.57294     1.69935
H      0.03438    -0.63488     1.82314
O      1.27927    -1.79945     1.02293
H      0.81069    -1.66497     0.18114
O     -3.11156     0.96175     1.27311
H     -2.89118     0.03956     1.47240
O     -2.33812     1.18356     0.10189
H      0.66141     1.84992    -1.44471
O     -0.02223     2.09505     1.07099
H      0.16894     2.93904     1.49247
O      1.08767     1.92819     0.20095
H      1.51365     1.13061     0.56969
O     -2.06295    -1.11902    -1.14637
H     -2.32670    -0.23499    -0.80154
O     -0.63848    -1.00373    -1.15626
H     -0.46259    -0.22378    -1.71124
O      1.65566     1.79128    -3.00371
H      1.41467     1.59436    -3.91303
O      0.41636     1.55025    -2.33895
H     -1.48852     1.50697     0.46321
O      2.41590    -0.42661    -1.59754
H      2.40014     0.42441    -2.05927
O      3.04408    -0.04033    -0.36157
H      3.02461    -0.88230     0.10927
