 40
-1516.6467893367092
O     -1.87136     0.79626    -0.55711
H     -2.36941     1.54687    -0.91495
O     -0.71974     0.79159    -1.41789
H     -0.37633    -0.10603    -1.27757
O     -1.60741     2.72584     1.78817
H     -2.35121     2.98118     1.22107
O     -2.17532     1.70152     2.59537
H     -1.67789     0.93204     2.28678
O      3.25255    -1.73543     0.83700
H      3.00693    -0.79645     0.98877
O      2.21963    -2.38985     1.56648
H      1.84639    -2.99611     0.90082
O     -0.24878    -0.49151     1.56486
H     -0.55837    -1.07199     0.83128
O     -0.06947    -1.44986     2.60359
H      0.84100    -1.73688     2.40848
O     -3.27826     3.40871    -1.98960
H     -3.91059     4.13014    -2.06797
O     -2.73372     3.65363    -0.69579
H     -1.79712     3.81931    -0.91159
O      2.63425    -2.00413    -1.75584
H      3.04421    -1.97158    -0.86552
O      1.49955    -1.15957    -1.55863
H      1.89923    -0.34232    -1.20280
O     -0.06080     3.30233    -0.98800
H     -0.13759     2.35154    -1.22558
O      0.54797     3.22794     0.30086
H     -0.20154     2.98702     0.88240
O      1.15955    -4.26473    -0.00548
H      1.40162    -5.19529    -0.05966
O      0.79827    -3.96440    -1.35169
H      1.53425    -3.37905    -1.61850
O      2.06942     0.61561     1.15018
H      1.13814     0.33962     1.34280
O      1.98347     1.09697    -0.19978
H      1.63727     2.01165    -0.05408
O     -2.49183    -2.07835    -0.68800
H     -2.71214    -1.15364    -0.85637
O     -1.07724    -1.93554    -0.50927
H     -0.70610    -2.68885    -1.00041
