 32
-1213.309584516286
O      0.98032     3.34325    -0.20255
H      0.99594     4.21152     0.21203
O      2.22602     2.78581     0.20676
H      1.92352     2.10182     0.84372
O     -0.19657    -3.07553     0.52402
H     -0.34859    -2.50897     1.29203
O     -1.03545    -2.46142    -0.44669
H     -0.40253    -1.94466    -1.00088
O     -0.73195     1.29961    -0.09111
H     -0.15988     2.07345    -0.25414
O     -1.50129     1.23936    -1.29297
H     -2.19655     0.62530    -1.00165
O      1.47510    -0.42536     0.82497
H      0.75051    -0.25255     0.19232
O      1.38687     0.70383     1.69126
H      0.51829     0.56352     2.10940
O      3.54972     0.00309    -0.83860
H      2.93099    -0.32193    -0.16191
O      2.66240     0.76920    -1.66607
H      2.68949     1.63744    -1.22798
O      0.51335    -0.79179    -1.87152
H      1.34548    -0.26460    -1.95553
O     -0.24270    -0.36124    -3.01008
H     -0.73161     0.36773    -2.59281
O     -1.35639    -0.03940     2.65893
H     -2.05773    -0.14406     1.99121
O     -1.08834    -1.39864     2.99729
H     -1.48293    -1.48061     3.87144
O     -3.42619    -0.51198    -0.52521
H     -3.87255    -1.16827    -1.06803
O     -3.08072    -1.26500     0.64040
H     -2.32236    -1.80642     0.29531
