 16
-606.6314833347559
O     -2.45652    -0.24294     0.47606
H     -2.64736    -0.21160     1.41816
O     -1.63533     0.92248     0.31584
H     -0.79333     0.53453     0.00584
O      0.77628     0.23118    -0.64031
H      1.41514     0.93335    -0.45730
O      1.33353    -0.85772     0.11561
H      0.62936    -1.51484    -0.01968
O      1.82187     2.90807     0.02427
H      2.68837     3.13005     0.38026
O      2.17462     2.64748    -1.34346
H      1.42107     3.04282    -1.79163
O     -0.95169    -2.34396    -0.22833
H     -1.61409    -1.64573    -0.05268
O     -1.14139    -3.17893     0.91571
H     -1.31358    -4.02245     0.48769
