 32
-1213.3160069709509
O     -0.17865     1.81387     2.64840
H     -0.30647     0.97474     3.12522
O      1.20522     1.66051     2.30949
H      1.25848     2.09964     1.44180
O     -2.02088    -0.34108    -2.08563
H     -2.49707    -1.00506    -1.56279
O     -1.45650    -1.09367    -3.15879
H     -0.52086    -1.05128    -2.92333
O      1.55022     0.97848    -0.45465
H      1.93345     0.94571    -1.35205
O      1.21282     2.35572    -0.29447
H      0.25558     2.31477    -0.50812
O     -1.33329     1.77243    -0.61765
H     -1.58886     0.99863    -1.15742
O     -1.95998     1.47753     0.62563
H     -1.26910     1.68467     1.28591
O      2.61799    -0.77596    -2.35806
H      2.20110    -1.46653    -1.82652
O      1.45830    -0.21125    -2.96764
H      1.74815    -0.10183    -3.87871
O      0.39085    -1.37207    -0.56973
H      0.70697    -0.45780    -0.41885
O      1.45273    -2.11989     0.01708
H      1.41479    -1.79032     0.94424
O      0.06737    -0.82190     3.01280
H     -0.53121    -1.20113     2.34033
O      1.35531    -0.98698     2.41936
H      1.60306    -0.04953     2.30898
O     -2.81298    -1.05248     0.50296
H     -2.64198    -0.10437     0.64381
O     -1.64433    -1.62348     1.08620
H     -1.03332    -1.66378     0.32133
