 36
-1364.97511086309
O      2.88041    -0.44217     0.01384
H      2.69420    -1.29571    -0.41935
O      1.91119    -0.51867     1.06443
H      1.94410     0.38363     1.42484
O     -0.21464    -2.54350     1.77278
H      0.56683    -2.18545     1.32344
O     -0.93577    -3.17341     0.71366
H     -1.54927    -2.46943     0.42003
O      0.58152     2.42774     2.41054
H      1.02753     2.79066     3.18225
O      1.66970     2.18393     1.52404
H      1.32162     2.55175     0.68544
O      2.22425     1.08104    -2.11970
H      2.55805     0.60956    -1.33180
O      1.27634     0.13022    -2.62493
H      0.45856     0.64233    -2.54008
O     -2.79726     2.07208     0.28237
H     -2.28267     1.41408     0.79235
O     -3.61742     1.22853    -0.52950
H     -4.49339     1.39082    -0.16720
O     -0.34851     2.11376    -1.36920
H     -1.08745     2.40969    -0.81783
O      0.73133     2.94330    -0.91756
H      1.43294     2.57752    -1.49030
O     -2.34786    -1.18175    -0.40139
H     -2.84629    -0.35204    -0.54783
O     -1.18208    -0.97779    -1.19872
H     -0.61296    -0.50890    -0.55814
O     -0.84080     0.50798     1.26765
H     -0.28605     1.12153     1.78984
O     -1.49938    -0.25650     2.28734
H     -1.03636    -1.11386     2.18738
O      0.81660    -3.60056    -1.35567
H      0.15522    -3.50128    -0.64897
O      1.56552    -2.39607    -1.21325
H      1.26176    -1.86678    -1.96690
