 36
-1364.9745638130105
O      1.32525     1.16099     0.52148
H      1.48864     2.13052     0.41841
O      2.55407     0.62170     0.02714
H      2.28988    -0.29081    -0.19955
O      1.40847    -2.61428     2.08154
H      0.56816    -2.22839     2.40551
O      2.35313    -1.89833     2.87309
H      2.69787    -2.60144     3.43037
O     -2.69376    -0.57607    -0.63058
H     -2.41653    -0.85051    -1.52099
O     -2.10187    -1.56734     0.21252
H     -1.17759    -1.58152    -0.09828
O     -0.76527    -1.17842     2.73598
H     -1.53629    -1.17115     2.14161
O     -0.33001     0.17925     2.69127
H      0.50361     0.12811     2.19608
O     -0.23175    -1.95962    -3.35968
H     -0.15231    -1.88923    -4.31668
O     -1.25605    -1.02293    -3.05694
H     -0.72110    -0.27501    -2.69739
O     -1.65252     1.74603     0.96885
H     -1.21852     1.21173     1.66706
O     -3.02745     1.42651     1.16312
H     -3.13119     0.75808     0.46709
O      1.51499     3.71043    -0.13815
H      2.23652     4.34496    -0.16068
O      1.35241     3.42070    -1.53518
H      0.47042     3.00184    -1.53324
O      1.74049    -1.92743    -0.50599
H      1.74012    -2.31952     0.39045
O      0.33826    -1.94233    -0.76619
H      0.30530    -2.08835    -1.73203
O      0.02526     0.79776    -1.68713
H      0.49688     0.78795    -0.82330
O     -0.86625     1.90003    -1.52479
H     -1.22931     1.76338    -0.60860
