 20
-758.3056551748812
O      2.30366    -0.62311     0.94005
H      2.06945     0.16626     0.41037
O      1.34303    -0.53826     2.00567
H      0.61605    -1.06484     1.63719
O      0.03060    -2.00102    -1.11628
H     -0.82919    -1.60250    -0.92594
O      0.37081    -2.54198     0.16543
H      1.32615    -2.41258     0.14644
O     -1.00805     1.18967     1.06744
H     -1.87947     1.60862     1.05538
O     -0.34125     1.82720     2.16425
H      0.31060     1.13689     2.35544
O      0.67061     0.77557    -1.71629
H      0.84934    -0.16870    -1.58288
O      1.12372     1.35542    -0.48586
H      0.29035     1.42131     0.02680
O     -2.38579    -0.35692    -1.23691
H     -2.91807    -0.69467    -1.96383
O     -2.05724     0.95175    -1.71523
H     -1.08748     0.88166    -1.80382
