 32
-1213.3087441332934
O     -0.82973    -2.42889    -1.71785
H     -0.16473    -2.66750    -1.04519
O     -1.15071    -1.11610    -1.23836
H     -1.95349    -0.88715    -1.73611
O      1.06935    -0.87154     2.78686
H      0.16822    -0.86740     2.38160
O      0.89503     0.01108     3.88692
H      1.11231    -0.57186     4.61886
O     -2.57688     1.82751    -1.14860
H     -2.68960     1.15295    -0.46197
O     -2.54973     1.04946    -2.34636
H     -1.68247     1.30757    -2.71167
O      0.06099     1.57785    -2.96749
H      0.23774     2.27399    -2.31395
O      0.76688     0.48714    -2.36999
H      0.05717    -0.03311    -1.95374
O      0.03337     2.16185     0.78147
H      0.93408     1.77311     0.76253
O     -0.12522     2.71941    -0.52225
H     -1.08578     2.60145    -0.63386
O      2.31193     0.72551     0.97746
H      2.06436     0.09866     1.68807
O      2.43796    -0.15650    -0.14364
H      2.12022     0.39299    -0.87946
O      1.85428    -3.21151     0.96322
H      1.59243    -2.92586     1.84554
O      1.02492    -2.36705     0.17911
H      1.62564    -1.61491    -0.00673
O     -1.19604    -0.82456     1.39521
H     -1.19670    -1.12094     0.46011
O     -1.90580     0.41826     1.29053
H     -1.16587     1.05834     1.25335
