 24
-909.9775688807691
O     -0.94667    -0.61815     1.19575
H     -1.65750    -0.54729     0.54054
O     -0.48813    -1.95751     0.96166
H      0.46752    -1.84510     1.17309
O      0.74074    -0.92196    -1.77490
H      0.36201    -0.08859    -1.42323
O     -0.38211    -1.80947    -1.72833
H     -0.35331    -2.09456    -0.79540
O      2.02664    -1.24345     1.25147
H      2.04713    -0.27319     1.25753
O      2.65800    -1.57923     0.01612
H      1.95228    -1.40591    -0.64248
O     -2.62964    -0.38693    -1.03931
H     -1.97825    -0.81597    -1.62527
O     -2.97291     0.77885    -1.78234
H     -3.88998     0.59402    -2.00952
O      0.82419     2.35949    -0.95654
H      0.97746     2.47701    -0.00865
O     -0.23056     1.38658    -0.91397
H     -0.98862     1.85349    -1.29372
O      0.72503     2.37884     2.89781
H      1.32947     2.08487     3.58720
O      1.03166     1.45900     1.85462
H      0.20445     0.95168     1.78605
