 24
-909.9779605180593
O     -0.81800    -1.49914    -1.51325
H     -0.90251    -0.55213    -1.75981
O     -1.24693    -1.47822    -0.14600
H     -0.63850    -2.11972     0.25076
O     -1.06122     0.52476     2.56027
H     -1.28109     1.44770     2.37493
O     -0.14441     0.28337     1.50243
H     -0.68191    -0.24734     0.87580
O      1.84659    -1.82765    -1.34868
H      0.90142    -1.71833    -1.56066
O      2.19721    -0.47588    -1.01685
H      2.38027    -0.59052    -0.06184
O     -0.72043     1.13136    -1.95804
H     -1.43745     1.53908    -1.44324
O      0.38639     1.54278    -1.14030
H      1.00217     0.78800    -1.21221
O      1.98170    -1.26134     1.51466
H      1.26040    -0.64304     1.75397
O      1.22002    -2.43948     1.18711
H      1.61649    -2.63201     0.32378
O     -2.22931     2.39954    -0.13403
H     -2.70272     3.22316    -0.29380
O     -1.24754     2.81868     0.82080
H     -0.44230     2.55177     0.35118
