 32
-1213.3033130644944
O     -0.40900    -2.05898     1.75348
H     -0.36705    -2.07067     0.78327
O     -1.74763    -1.59820     1.97113
H     -1.67821    -0.64263     1.81486
O      0.55232    -1.80841    -2.92530
H     -0.15906    -1.99012    -2.28667
O     -0.02823    -0.77978    -3.72082
H     -0.33645    -1.25797    -4.49752
O     -2.80882    -2.45449    -0.38711
H     -2.71661    -2.35044     0.57270
O     -1.54803    -1.91298    -0.79399
H     -1.78775    -0.99753    -1.05132
O     -1.64747     0.47695    -1.96143
H     -1.00850     0.26829    -2.66845
O     -0.92941     1.42447    -1.16534
H     -0.19016     0.86595    -0.83654
O      2.10240     2.50436     0.95699
H      1.15331     2.70068     0.91786
O      2.56354     2.81549    -0.35573
H      2.59002     1.93712    -0.76071
O      0.93684    -0.29923    -0.45081
H      1.20449    -0.18453     0.48995
O      2.18832    -0.24294    -1.15611
H      1.96056    -0.82103    -1.89658
O     -1.78354     1.45242     1.52845
H     -1.89985     1.68032     0.59201
O     -0.72503     2.34482     1.90212
H     -0.23108     1.76176     2.49039
O      2.41855     0.39500     2.58724
H      2.53868     1.18691     2.03281
O      1.06287     0.11307     2.20498
H      0.87869    -0.75792     2.58979
