 20
-758.3112828891844
O     -0.76950    -1.88001    -0.51017
H     -1.50395    -1.31940    -0.80306
O      0.26889    -1.43018    -1.39413
H      1.05973    -1.70648    -0.90860
O      2.82643     0.13729    -0.26545
H      3.74547     0.24777     0.00034
O      2.48554    -1.11832     0.31947
H      1.90376    -0.84520     1.04848
O      0.58791     2.31201    -0.43071
H      0.61809     1.79161     0.39003
O     -0.15332     1.44837    -1.29111
H      0.42848     0.67887    -1.40196
O      0.02594    -0.94692     1.90138
H     -0.32845    -1.34547     1.08366
O     -0.17089     0.45187     1.66952
H     -1.11056     0.49019     1.40780
O     -2.66162     0.57525     0.70238
H     -3.33676     1.26005     0.73600
O     -2.49574     0.36767    -0.69824
H     -1.70776     0.92456    -0.88239
