 32
-1213.3151128972313
O      2.84985    -0.93977    -0.72748
H      2.00323    -1.31912    -0.42466
O      2.79141    -1.16680    -2.13261
H      3.35158    -1.94419    -2.23536
O     -0.44385     1.91721     2.16412
H     -0.72970     2.02769     1.23521
O     -1.28214     0.82546     2.55288
H     -0.63807     0.11482     2.73811
O     -1.99734     0.59711    -2.45671
H     -1.42081    -0.13010    -2.75028
O     -3.19307    -0.09060    -2.06599
H     -3.01132    -0.23350    -1.11784
O     -0.89142     1.89805    -0.46201
H     -1.47703     1.52911    -1.17094
O      0.38449     1.62252    -1.04994
H      1.01263     1.89873    -0.35392
O      2.40565     1.57053     0.73447
H      2.86364     0.81389     0.33759
O      2.08433     1.05098     2.02477
H      1.26403     1.54420     2.23075
O      0.05439    -0.98958    -1.22100
H      0.21278    -0.01649    -1.13547
O      0.14714    -1.17088    -2.63299
H      1.11597    -1.13418    -2.70000
O      0.05901    -1.51213     2.54429
H     -0.68381    -1.87824     2.02974
O      1.03488    -1.36938     1.50243
H      1.52074    -0.58812     1.82298
O     -2.55265    -0.43593     0.53729
H     -2.16888     0.09986     1.26104
O     -1.78387    -1.64126     0.61282
H     -1.15243    -1.51000    -0.12369
