 36
-1364.9785554117284
O      2.52203     0.37110    -0.08217
H      1.92895    -0.33678    -0.41576
O      2.11683     1.53640    -0.79772
H      1.68576     2.04843    -0.08597
O      0.94968    -0.53336     2.22853
H      1.82321    -0.19652     2.53848
O      0.08725     0.55782     2.57410
H     -0.77679     0.17649     2.36361
O     -2.55464    -0.68771    -3.44943
H     -1.83918    -0.18307    -3.01810
O     -3.33748    -1.01172    -2.29559
H     -4.23558    -0.90095    -2.62193
O     -1.48744    -0.27442     0.48696
H     -2.02169    -1.06310     0.27553
O     -2.41381     0.61285     1.12259
H     -2.01156     1.46137     0.85890
O     -0.61675     0.32512    -1.92899
H     -0.84338     0.24414    -0.97607
O     -0.26404     1.70024    -2.04536
H      0.70448     1.63837    -1.94814
O      1.07996    -1.78595    -0.78674
H      0.28682    -1.95421    -1.33079
O      0.72253    -2.49334     0.41129
H      0.75341    -1.77233     1.06903
O      0.39394     2.68138     0.92324
H      0.28432     1.98068     1.59244
O     -0.91087     2.75856     0.34381
H     -0.71214     2.56696    -0.59412
O      3.76406     1.39523     2.03793
H      3.39230     1.01289     1.21673
O      3.29901     0.42725     2.98375
H      4.10896    -0.02961     3.22784
O     -1.39764    -2.53972    -1.42071
H     -2.20116    -2.14771    -1.81973
O     -1.88598    -3.01355    -0.15521
H     -1.02619    -3.18724     0.26220
