 36
-1364.97753422218
O      2.15326     1.65666    -1.62014
H      2.15795     0.95824    -0.93534
O      1.57425     2.77039    -0.93774
H      0.71063     2.85317    -1.39063
O      0.29325    -0.60886    -3.12737
H     -0.64719    -0.67484    -2.87898
O      0.42280     0.77457    -3.47465
H      1.19231     1.02864    -2.92738
O      0.59416    -0.32206     3.20401
H      1.33740     0.28725     3.30808
O      1.16310    -1.60286     3.47838
H      1.19911    -1.98487     2.58759
O     -2.06464    -0.62120    -1.83119
H     -2.25507     0.32846    -1.73422
O     -1.15865    -0.74926    -0.72769
H     -1.18669    -1.69973    -0.50028
O     -0.87029     2.71332    -2.04650
H     -0.71103     2.07243    -2.75891
O     -1.70943     1.96423    -1.16861
H     -1.13762     1.82718    -0.38511
O     -2.32975    -0.82379     3.45470
H     -1.44549    -0.67935     3.81879
O     -1.98107    -0.75241     2.06737
H     -2.70685    -0.24980     1.68028
O      1.74626    -1.57908    -1.08022
H      1.28308    -1.18357    -1.85216
O      1.74733    -0.51881    -0.12932
H      0.79737    -0.34911     0.02057
O      0.83147     2.07433     1.52834
H      1.23470     2.42554     0.70886
O     -0.23145     1.31818     0.93162
H     -0.43879     0.67566     1.63393
O      0.60311    -3.02993     0.84567
H      0.97940    -2.63411     0.03134
O     -0.80112    -2.98144     0.57977
H     -1.12594    -2.57420     1.39771
