 32
-1213.3115228948639
O      1.95832     0.08091     0.82325
H      1.38269     0.23965     1.58547
O      1.83539     1.28278     0.07627
H      0.87176     1.34930    -0.12757
O     -0.05947    -1.85836     0.19487
H      0.75105    -1.97399    -0.34428
O     -1.10604    -1.88317    -0.77630
H     -0.77245    -1.24675    -1.42589
O     -0.49077     0.66109    -2.06717
H      0.36046     0.99565    -2.41578
O     -0.62325     1.47253    -0.89639
H     -1.41776     1.09524    -0.46990
O     -0.57458     2.21929     1.97119
H     -0.29017     3.03851     2.38632
O     -1.43088     1.65824     2.97708
H     -0.99999     0.78259     3.08817
O      2.87560     0.86794    -2.34694
H      2.56510     0.93862    -1.41381
O      1.83947     1.57423    -3.03656
H      2.13333     2.48995    -2.98656
O      1.55586    -1.64514    -2.84370
H      2.27889    -1.00214    -2.90331
O      1.88055    -2.29100    -1.61234
H      2.07371    -3.18903    -1.89832
O     -1.50623    -1.44632     3.10942
H     -2.24527    -1.12944     2.56639
O     -0.43159    -0.71274     2.53683
H     -0.33521    -1.16293     1.66645
O     -3.23184    -0.06814     1.49619
H     -2.94537     0.75718     1.91074
O     -2.69346     0.11127     0.18744
H     -2.40621    -0.78746    -0.06270
