 24
-909.9806836779386
O     -3.07400    -0.63344     0.25736
H     -2.83640     0.09717    -0.33715
O     -1.81162    -0.91253     0.85876
H     -1.33732    -1.35960     0.12728
O      1.10140    -1.81734    -0.75108
H      1.03548    -1.65692     0.21263
O     -0.24876    -1.65144    -1.17544
H     -0.22567    -0.80671    -1.64969
O      2.50044     0.29739    -1.62844
H      2.13007    -0.59083    -1.45677
O      2.24587     0.90942    -0.36269
H      3.10757     0.88840     0.06852
O     -2.01047     1.39652    -1.28159
H     -1.32867     1.67097    -0.62440
O     -1.16138     0.94106    -2.33075
H     -1.32203     1.60227    -3.01002
O      1.75768    -0.31122     2.33042
H      1.06251     0.37501     2.26077
O      1.01345    -1.43325     1.86259
H      0.84483    -1.93564     2.66580
O     -0.08928     1.83040     0.45983
H      0.77283     1.44163     0.19438
O     -0.38877     1.16584     1.68556
H     -0.97999     0.43492     1.38914
