 32
-1213.3063398838397
O      2.79466     0.50297    -0.30281
H      2.83355    -0.03022     0.50981
O      2.61777    -0.49420    -1.31193
H      2.12337     0.00202    -1.98355
O      0.12652    -2.32239    -1.91024
H     -0.78738    -2.18843    -1.62614
O      0.78936    -2.34841    -0.63748
H      1.60510    -1.85052    -0.85641
O     -3.02526    -1.47200    -0.29317
H     -2.56868    -1.63100     0.54608
O     -2.04485    -0.67711    -0.96875
H     -2.45372     0.20265    -0.96939
O      0.60873     1.64582     1.19375
H      0.89886     1.51498     0.26882
O     -0.79597     1.37825     1.12115
H     -0.80854     0.40060     1.24150
O      0.06145     1.69326    -1.65035
H     -0.87403     1.94859    -1.76315
O      0.22567     0.60766    -2.57305
H     -0.17092    -0.14013    -2.09948
O      2.79286    -0.59101     2.16690
H      3.47914    -0.35046     2.79772
O      1.61500    -0.15473     2.83878
H      1.29747     0.56261     2.24274
O     -0.34686    -2.05734     2.51060
H      0.40434    -1.56010     2.86767
O     -0.60318    -1.25573     1.36576
H     -0.06025    -1.68808     0.66233
O     -2.56791     2.17701    -1.32880
H     -3.28857     2.57763    -1.82398
O     -2.26730     3.17949    -0.35228
H     -1.75880     2.62972     0.27363
