 32
-1213.3049924707552
O      1.00411    -2.16548     1.72119
H      0.31245    -2.39754     1.06966
O      2.21738    -2.41829     1.02870
H      2.13288    -1.85196     0.24569
O     -0.05570    -3.12401    -1.38356
H     -0.73956    -3.70956    -1.72686
O     -0.74738    -2.40062    -0.36542
H     -0.97657    -1.55780    -0.83436
O      1.47568    -0.43621    -2.88883
H      0.65787     0.04915    -2.71535
O      1.66277    -1.10622    -1.64253
H      1.11105    -1.90896    -1.74994
O     -0.68559     3.64424     0.32453
H      0.16177     3.30640    -0.00696
O     -1.52627     2.52742     0.02014
H     -2.05251     2.83835    -0.72700
O      1.14842     1.51243    -0.53589
H      1.38284     1.17535     0.35241
O      2.41179     1.76124    -1.15521
H      2.54815     0.90183    -1.57549
O     -1.14517    -0.05742    -1.49325
H     -0.72973     0.67888    -0.99841
O     -2.52786     0.10824    -1.22817
H     -2.55067    -0.00901    -0.25011
O      1.42644     0.40624     1.99692
H      1.39041    -0.58792     2.00188
O      0.15317     0.72541     2.55244
H      0.33442     0.81115     3.49346
O     -2.03618    -0.13557     1.34357
H     -1.17935     0.09777     1.75755
O     -2.85640     0.94377     1.77675
H     -2.44958     1.66486     1.26554
