 40
-1516.638559955712
O      1.47130     0.13500    -0.79706
H      0.78431     0.83779    -0.81276
O      1.07554    -0.64459    -1.92925
H      0.73371    -1.46042    -1.49563
O     -1.29355    -0.23997     1.54764
H     -1.52960    -0.31495     0.58950
O     -0.73263    -1.52878     1.80193
H      0.21874    -1.31302     1.89445
O      0.20163     2.54554     2.83472
H     -0.69485     2.85653     2.62374
O      0.44943     1.72675     1.70338
H     -0.25448     1.03664     1.76409
O      0.71444     2.23907    -3.62439
H      1.26577     2.32395    -4.40766
O      0.01225     1.02283    -3.84707
H      0.46241     0.42345    -3.21790
O     -2.90352     3.05132     0.72013
H     -2.11380     3.38949     0.27322
O     -2.36434     2.67481     1.98880
H     -2.55829     1.73146     2.02510
O     -0.08601     3.28474    -0.34186
H      0.24203     2.84700     0.47612
O     -0.17737     2.12777    -1.17915
H      0.13609     2.44697    -2.05550
O     -2.49726     0.42830    -1.93907
H     -2.03336     1.27165    -1.84619
O     -1.68133    -0.36094    -1.06555
H     -1.69135    -1.24690    -1.46271
O     -1.17810    -3.02352    -0.38311
H     -1.09796    -2.58327     0.48386
O      0.16826    -2.91988    -0.85793
H      0.67073    -3.38822    -0.15780
O      1.49592    -3.67454     1.35157
H      2.06135    -2.87427     1.39732
O      2.45569    -4.70086     1.10100
H      2.33446    -5.24222     1.88497
O      1.81036    -0.78756     2.01653
H      1.87742     0.17446     1.90653
O      2.69467    -1.28625     1.00815
H      2.33220    -0.84175     0.20173
