 40
-1516.6487520433234
O      3.31324     3.35469     0.15326
H      2.87146     3.07493    -0.66139
O      3.32651     2.13384     0.88791
H      2.65821     2.29404     1.57353
O     -0.61998    -1.20864    -1.21091
H     -1.25265    -1.91027    -0.95391
O     -1.43608    -0.25604    -1.89923
H     -0.81162     0.50016    -1.90687
O     -2.83426     1.03226     0.73411
H     -2.87391     1.74168     0.07616
O     -3.29976    -0.07592    -0.03523
H     -2.71043    -0.05577    -0.82659
O     -0.04978     1.73874     1.14808
H     -0.86924     1.26775     1.37949
O      0.86344     1.34381     2.16897
H      0.67325     0.37957     2.23543
O     -2.53038     2.56743    -1.68648
H     -3.11119     2.66536    -2.44940
O     -1.72639     3.74773    -1.72749
H     -0.86765     3.35485    -1.93895
O      0.34032     1.62999    -1.45505
H      0.36304     1.74262    -0.47582
O      1.68626     1.82693    -1.85452
H      2.05708     0.95363    -1.60855
O      2.64493    -0.45453     0.46892
H      2.96816     0.46747     0.52748
O      2.27674    -0.56481    -0.89735
H      1.39626    -0.96814    -0.83693
O      0.13116    -1.16341     2.22706
H     -0.63340    -1.58814     1.78109
O      1.20345    -2.07716     2.00260
H      1.79624    -1.51655     1.45598
O      0.29319    -4.14765     0.58697
H      0.66413    -3.49818     1.22460
O      1.01393    -3.78666    -0.59334
H      1.56706    -4.56502    -0.71777
O     -2.12065    -2.15911     1.17525
H     -2.70904    -1.43518     0.86760
O     -2.15135    -3.04077     0.04924
H     -1.42902    -3.65092     0.28663
