 36
-1364.9726924284064
O     -0.04673     1.46825     2.25346
H     -0.51860     1.00436     2.97847
O     -1.08066     2.30456     1.70379
H     -0.51550     2.86490     1.13524
O     -1.07347    -0.06380     4.15600
H     -1.11405     0.07016     5.10815
O     -0.10847    -1.12548     4.06980
H     -0.13463    -1.31497     3.11121
O      1.90555     2.00123     0.50743
H      1.44223     1.59156     1.26127
O      1.00256     3.09154     0.23451
H      0.90287     3.02526    -0.74557
O      1.18781    -2.79460    -2.31254
H      1.54277    -1.89313    -2.25253
O      1.34331    -3.27028    -0.96439
H      0.42354    -3.46399    -0.73498
O      0.54950     2.62614    -2.32941
H      0.64357     1.65642    -2.42539
O     -0.84959     2.83245    -2.13300
H     -1.11220     2.04403    -1.63250
O     -1.93997     0.16399     0.36682
H     -1.75743     1.00065     0.85786
O     -1.57358     0.52102    -0.96771
H     -1.78043    -0.28661    -1.46266
O      1.03850    -0.96232     0.82692
H      1.47954    -1.72806     0.42014
O     -0.12417    -1.57811     1.40285
H     -0.84166    -1.04759     0.99688
O      2.34926     0.38129    -1.57430
H      2.22146     0.98937    -0.80948
O      1.01505     0.02884    -1.93110
H      0.58892    -0.11189    -1.06566
O     -1.61893    -3.00437    -1.08307
H     -2.25622    -3.65290    -1.40158
O     -1.51747    -2.12396    -2.20311
H     -0.63511    -2.36407    -2.54393
