 24
-909.9827085276193
O     -0.73604     1.32364     1.94432
H      0.04357     0.83328     2.24294
O     -1.64363     0.25445     1.67740
H     -2.28890     0.68006     1.07341
O      2.98731    -1.62709    -1.68472
H      2.81788    -1.05238    -0.91450
O      1.99576    -2.63736    -1.49965
H      2.50191    -3.38681    -1.17163
O      1.76732    -0.19421     1.60696
H      1.18969    -0.93202     1.34312
O      2.37859     0.10358     0.34736
H      1.73705     0.73873    -0.03378
O     -2.76455     2.25462    -0.69172
H     -1.96018     1.83897    -1.06440
O     -3.39146     1.08510    -0.14537
H     -4.32186     1.32271    -0.19343
O     -0.20530    -1.73444     0.66305
H     -0.84960    -1.07011     0.97586
O     -0.24662    -1.48821    -0.74225
H      0.58547    -1.92594    -1.03029
O     -0.44886     1.07884    -1.33938
H     -0.32417     0.13290    -1.10613
O      0.44402     1.74212    -0.44574
H     -0.09119     1.78293     0.36730
