 32
-1213.3105812308006
O      0.53240     2.64760     2.09843
H     -0.23729     2.42460     2.63805
O      0.41917     1.64694     1.08869
H      0.33317     2.15068     0.25903
O     -0.13957    -2.01722    -2.83194
H      0.21092    -2.56146    -2.11629
O     -0.23275    -0.76996    -2.12381
H     -0.06694    -0.10464    -2.80852
O     -0.03364     1.97545    -2.84449
H      0.90005     1.89224    -2.61319
O     -0.55877     2.41479    -1.59430
H     -1.19248     1.71539    -1.38285
O     -1.76081    -0.89461     0.01902
H     -1.16532    -0.91199    -0.76408
O     -2.05861     0.50273     0.09228
H     -2.15917     0.63955     1.05577
O      2.29193     0.41770    -0.84679
H      2.13907    -0.53246    -0.99215
O      2.57204     0.84174    -2.18369
H      3.41787     1.28062    -2.05958
O      0.89667    -3.68116    -0.36565
H      1.66208    -4.24077    -0.51749
O      1.50381    -2.39364    -0.40394
H      1.20496    -1.99825     0.44981
O     -0.38690    -1.25809     2.21696
H     -0.95442    -1.29726     1.41350
O      0.85566    -0.87511     1.62736
H      0.69400     0.06830     1.39966
O     -1.33535     0.90501     3.50680
H     -0.88493     0.10920     3.14694
O     -2.50542     0.93060     2.69180
H     -3.14086     0.42451     3.20812
