 32
-1213.3017806554337
O      3.45654    -1.41163     1.28558
H      2.55528    -1.78976     1.30120
O      3.33601    -0.32986     2.21266
H      3.74292    -0.67931     3.01051
O     -2.36708    -1.88961    -1.43688
H     -2.30878    -0.90892    -1.39241
O     -2.18556    -2.21618    -0.05861
H     -3.08383    -2.40005     0.23489
O      0.99131     0.94487     0.19828
H      0.57775     0.06194     0.14079
O      1.15208     1.13566     1.60415
H      1.94493     0.58823     1.78709
O     -2.09852     0.58050     2.67187
H     -2.61434     1.28893     3.06289
O     -1.51101     1.26733     1.57776
H     -0.55138     1.25531     1.79573
O      0.74515     2.34898    -2.62498
H      1.62598     2.73056    -2.69312
O      0.24325     2.92512    -1.41816
H      0.50976     2.24453    -0.75847
O      0.44485    -1.38603    -1.52490
H     -0.35913    -1.72589    -1.95251
O      1.08690    -0.64138    -2.55593
H      0.74058     0.24868    -2.38097
O     -0.01194    -1.47316     1.36331
H     -0.84120    -1.74477     0.92965
O      0.91755    -2.44466     0.86138
H      0.86622    -2.25573    -0.09546
O     -1.71977     0.64602    -1.04187
H     -1.73413     0.86732    -0.08570
O     -2.45960     1.71692    -1.62062
H     -1.73011     2.30386    -1.85965
