 40
-1516.6406072959644
O      1.91821     0.71252     1.14027
H      1.36104    -0.02867     0.80336
O      1.99434     1.55578    -0.01668
H      1.15545     2.05358     0.07730
O     -1.20419     2.09803    -2.32892
H     -1.20270     2.78125    -1.64550
O     -0.56626     1.05010    -1.60227
H      0.14614     0.75394    -2.19429
O     -2.22480    -0.34123    -0.07812
H     -1.56680     0.18598    -0.59078
O     -2.44265     0.46722     1.07645
H     -1.78071     0.09820     1.69548
O     -0.48519    -0.63049     2.57438
H      0.10520    -1.35683     2.31057
O     -0.31089    -0.52990     3.98882
H      0.23195     0.26812     4.03628
O     -0.22906     2.69196     0.85212
H     -0.14761     2.80774     1.81894
O     -1.59348     2.97959     0.56879
H     -2.00021     2.10014     0.70767
O      2.43935    -1.17819    -2.10715
H      1.93348    -1.56772    -2.84227
O      2.16944     0.21029    -2.32874
H      2.31084     0.60043    -1.44062
O     -0.52592    -1.63975    -3.50017
H     -0.95787    -2.21554    -2.84609
O      0.65432    -2.39841    -3.78025
H      0.62343    -2.45335    -4.73985
O      0.81909    -2.57644     0.72328
H      0.00193    -2.98056     0.39092
O      0.76176    -1.35849    -0.03019
H      1.41358    -1.48309    -0.76692
O     -1.74023    -2.93212    -0.21492
H     -1.94502    -1.96858    -0.13756
O     -1.82156    -3.13937    -1.61469
H     -2.73153    -3.42620    -1.73186
O      0.65031     2.96269     3.38390
H      1.20592     3.71120     3.62112
O      1.52570     1.85936     3.60647
H      1.70074     1.55158     2.69198
