 32
-1213.3057996323803
O     -0.99383    -2.51226    -0.24823
H     -0.41561    -2.15415    -0.95676
O     -0.36451    -1.95691     0.91043
H     -0.82204    -1.10375     0.99773
O      1.77371    -1.62959    -2.34738
H      2.47729    -1.47337    -1.69636
O      0.68290    -1.06904    -1.61457
H      0.48168    -0.23240    -2.06716
O     -3.40436    -1.37103    -0.42700
H     -2.57745    -1.90472    -0.38203
O     -3.14844    -0.55225    -1.56746
H     -3.61836    -1.02080    -2.26578
O     -1.00695     1.06253    -1.97543
H     -1.81011     0.52746    -1.82460
O     -1.27966     2.26559    -1.26001
H     -1.63386     1.92691    -0.42293
O      1.39886     1.69610    -0.39550
H      0.64914     2.09955    -0.87445
O      2.16997     2.82285     0.05533
H      2.18400     2.63427     1.00453
O      2.65116    -1.30465     1.04210
H      1.76280    -1.59540     0.77834
O      3.21155    -0.78063    -0.15799
H      2.80903     0.10334    -0.20375
O      2.05186     0.92297     2.38843
H      2.42669     0.08633     2.03506
O      0.65407     0.68170     2.21768
H      0.53974     0.95403     1.29042
O     -2.09339     0.57239     1.06944
H     -2.90480     0.04004     1.02261
O     -2.17270     1.20887     2.35460
H     -1.28545     1.00158     2.68780
