 32
-1213.3069986150422
O      2.85047     0.44697     1.25853
H      2.30017     0.29348     0.46411
O      1.84491     0.17804     2.24843
H      2.35943     0.08704     3.05714
O     -0.99808    -2.46796    -1.28244
H     -1.47631    -1.77332    -1.75347
O     -1.71937    -2.52511    -0.05213
H     -0.99838    -2.54392     0.61696
O     -1.22024     0.27756    -2.44897
H     -0.50850     0.72126    -2.93930
O     -1.25544     1.15509    -1.31576
H     -1.99250     0.79101    -0.77701
O      0.53689     2.61050     0.42307
H     -0.08499     2.53023    -0.31240
O     -0.13574     1.79284     1.39102
H      0.61850     1.31437     1.79137
O      1.29127     1.44956    -2.83533
H      1.68733     0.61597    -2.52722
O      2.20384     2.43590    -2.35231
H      1.98994     2.48115    -1.41183
O      1.30900    -1.03830    -1.63318
H      0.62721    -1.71918    -1.49429
O      1.00497    -0.16582    -0.53716
H      0.15808     0.24566    -0.81136
O     -0.70961    -1.77741     2.98898
H     -1.36393    -1.19719     2.55422
O      0.07509    -2.22488     1.88279
H      0.80924    -1.59205     1.87277
O     -2.22428     0.10078     1.71346
H     -1.53675     0.77177     1.52755
O     -2.80013    -0.12237     0.42176
H     -2.59967    -1.07287     0.29162
