 32
-1213.3116131878937
O      1.67893    -1.78138     2.24517
H      1.41229    -2.35700     1.50278
O      0.80864    -0.66566     2.04481
H      1.26366    -0.14617     1.35846
O     -0.48317    -0.81524    -1.77500
H     -0.79752    -1.67409    -1.42565
O      0.93368    -0.95166    -1.55048
H      1.13751    -0.16878    -0.99418
O     -1.49398    -2.58904     2.36804
H     -0.96561    -2.80636     3.14273
O     -1.70382    -1.18271     2.51413
H     -0.79324    -0.85699     2.32837
O      0.20348     3.34518     0.44003
H     -0.04038     3.96742     1.13453
O     -1.02288     3.18229    -0.28422
H     -1.26309     2.26317    -0.02000
O      2.67826     1.39413    -0.66096
H      2.27591     1.69210    -1.49274
O      1.51403     1.07572     0.08032
H      1.09361     1.95562     0.24091
O     -1.37641     0.62373     0.28600
H     -1.12164     0.13877    -0.53443
O     -2.75532     0.27572     0.41605
H     -2.70500    -0.23111     1.24149
O      0.84246    -3.11062     0.00120
H      1.17142    -2.46646    -0.65112
O     -0.56586    -2.87873    -0.14620
H     -0.85650    -2.72969     0.77749
O      0.58738     2.32649    -2.51358
H     -0.15036     2.85810    -2.17339
O      0.02654     1.65567    -3.64872
H     -0.15772     0.78362    -3.27893
