 32
-1213.3095966435549
O      1.89216     0.58152     2.67857
H      1.81629    -0.31197     2.28165
O      2.65034     1.26851     1.67134
H      1.96832     1.82626     1.27425
O      0.05766    -1.71632     1.04853
H     -0.31037    -1.22614     1.81071
O      1.47031    -1.63282     1.25565
H      1.74677    -1.40290     0.34501
O      0.84538     0.35326    -3.39579
H      1.21057     0.97771    -4.03248
O     -0.50594     0.78299    -3.25827
H     -0.49065     1.25892    -2.39940
O     -0.82756     1.77058    -0.80739
H     -1.66265     1.39524    -0.42916
O      0.12434     1.36823     0.17966
H      0.48917     0.54325    -0.19047
O      1.85825    -0.57721    -1.13253
H      1.46575    -0.37955    -2.01290
O      2.92990     0.36965    -1.09356
H      3.02916     0.49352    -0.13865
O     -2.85995     0.67372     0.43015
H     -2.72673     0.80140     1.38032
O     -2.78010    -0.75767     0.35132
H     -2.50556    -0.87873    -0.58330
O     -0.63191    -2.10834    -1.84511
H     -0.60968    -2.16260    -0.87917
O     -1.80564    -1.32085    -2.05619
H     -1.47579    -0.64747    -2.67492
O     -0.97071    -0.38527     3.14368
H     -0.57384    -0.29308     4.01734
O     -1.32479     0.95116     2.80452
H     -0.62829     1.17412     2.16887
