 24
-909.9795540779552
O      0.32543    -2.14848    -0.99817
H      0.32777    -1.90893    -0.04870
O     -1.05935    -2.10936    -1.35585
H     -1.50459    -1.93805    -0.51336
O     -1.65756     0.29406     1.89916
H     -2.48528     0.54673     2.32351
O     -2.10504    -0.23001     0.65220
H     -1.62817     0.35448     0.01894
O      2.47524     0.24018    -0.60408
H      2.11786     1.03845    -0.17958
O      1.69150     0.20378    -1.80358
H      1.49037    -0.74236    -1.86439
O     -1.53301     0.42852    -2.26464
H     -1.35785    -0.51730    -2.10667
O     -0.78149     1.02468    -1.21564
H      0.14959     0.85136    -1.48964
O      1.50616    -0.76379     1.95004
H      2.01259    -0.79698     1.12538
O      0.32298    -1.46023     1.56175
H     -0.39545    -0.87440     1.87335
O      0.01663     2.70157     1.11389
H     -0.42401     2.40025     0.30749
O      1.23217     1.95947     1.04277
H      1.14305     1.34087     1.78180
