 16
-606.6305878645628
O     -1.19912     1.05635     2.10224
H     -1.69826     1.63708     2.68416
O     -1.56561     1.59113     0.82049
H     -1.01738     1.02751     0.24426
O      1.49553     1.27113     2.06726
H      0.53228     1.12113     2.06271
O      1.95394    -0.02574     1.67192
H      2.88421     0.03809     1.90615
O      1.18528     0.59440    -0.88824
H      1.45603     0.34656     0.01195
O     -0.14382     0.04566    -0.91537
H     -0.01823    -0.72880    -1.48229
O     -0.64848    -1.85932    -2.98914
H     -0.09876    -2.52905    -3.40789
O     -1.04664    -2.56143    -1.80313
H     -1.94680    -2.23629    -1.71115
