 32
-1213.309719165721
O      0.67339     2.08878     1.13295
H      1.42317     1.60364     1.52254
O     -0.24449     2.14967     2.23108
H     -1.09561     2.13359     1.75379
O     -1.36787    -2.59335    -1.25525
H     -1.36855    -3.40163    -1.77447
O     -0.57244    -1.72778    -2.05810
H     -1.18498    -0.96350    -2.15408
O     -1.98685     1.51432    -1.74989
H     -1.01615     1.36485    -1.72068
O     -2.45977     0.16709    -1.88530
H     -2.80156     0.02573    -0.97998
O      0.03990    -1.58665     0.77953
H     -0.62935    -1.99614     0.20411
O     -0.76150    -0.91419     1.75980
H     -0.05893    -0.59560     2.34323
O      0.51459     0.95288    -1.25870
H      0.53625     1.28975    -0.33187
O      1.72578     1.49485    -1.78468
H      2.22596     0.66908    -1.82022
O      2.79098    -1.48507    -0.33276
H      3.50961    -2.10251    -0.50284
O      2.34251    -1.16002    -1.63643
H      1.41847    -1.45044    -1.58852
O      1.88344    -0.70585     2.75583
H      2.54259    -0.74951     3.45687
O      2.53122     0.14197     1.80491
H      2.54978    -0.45279     1.03044
O     -2.80611     0.42278     0.71154
H     -2.00732     0.02857     1.12292
O     -2.56202     1.82508     0.84204
H     -2.39600     2.03962    -0.09648
