 24
-909.9747821446009
O     -1.87784    -1.24856     0.70406
H     -2.16174    -0.87424    -0.13986
O     -0.54320    -1.64782     0.38239
H     -0.04142    -1.30649     1.14889
O     -0.35520    -1.63994    -2.25677
H     -0.33459    -1.73750    -1.28000
O      0.61971    -0.60011    -2.40062
H      0.94863    -0.76661    -3.28984
O      2.37626    -0.92374    -0.38919
H      1.75488    -0.74597    -1.11835
O      2.58829     0.39793     0.12511
H      2.53867     0.23411     1.07836
O     -2.19409     0.76223    -1.47614
H     -1.23191     0.90631    -1.49208
O     -2.59438     1.69158    -0.46247
H     -2.90524     2.44584    -0.97813
O      1.23230     0.43242     2.65789
H      0.58966     0.91102     2.09373
O      0.67837    -0.87977     2.63014
H      0.29764    -0.97606     3.50846
O      0.32477     1.70701    -0.38322
H      1.18549     1.27819    -0.18478
O     -0.27206     1.79810     0.92235
H     -1.20703     1.68652     0.68277
