 40
-1516.6356519468538
O      2.92901    -0.17513     1.86290
H      2.44123    -0.86881     1.38532
O      2.85251     0.91786     0.95761
H      3.57139     0.76733     0.33193
O     -1.10937     3.23485    -1.77602
H     -1.44570     2.62163    -1.10933
O     -0.63424     2.34216    -2.78632
H      0.19078     1.98385    -2.40121
O     -1.94656     0.45302    -0.40904
H     -2.31769    -0.40036    -0.67934
O     -0.68769     0.00298     0.11459
H     -0.68715     0.39610     1.01171
O      1.10156    -2.31771     3.39711
H      0.95593    -2.94604     4.11163
O     -0.22453    -2.14976     2.88454
H     -0.39746    -1.22957     3.14356
O      0.81932     4.09613     0.37262
H      0.33963     4.05018    -0.46840
O      0.57119     2.78149     0.87418
H      1.44442     2.35604     0.81780
O      1.18841    -0.42555    -2.24460
H      0.27825    -0.46995    -2.60885
O      1.20683     0.80143    -1.52144
H      0.59505     0.59703    -0.77971
O     -2.49523    -1.01903    -3.71908
H     -2.58608    -1.69929    -3.03840
O     -1.27368    -0.42148    -3.28670
H     -1.49982     0.52156    -3.22950
O      0.40115    -2.71935    -0.06662
H      0.14134    -2.54588     0.85215
O      1.64319    -2.01532    -0.14772
H      1.53572    -1.48440    -0.96985
O     -2.72285    -3.17321    -0.19653
H     -2.84114    -4.00143    -0.67103
O     -2.01460    -2.40367    -1.15874
H     -1.07762    -2.48622    -0.85891
O      0.01677     1.81467     3.57776
H      0.07368     2.47544     2.87015
O      0.29350     0.62762     2.83659
H      1.24864     0.48937     2.96539
