 20
-758.3041964114175
O     -0.54050    -2.49622     1.09727
H      0.13210    -1.88267     1.42293
O     -1.14753    -1.71978     0.06414
H     -0.63985    -1.97516    -0.72088
O      1.20042    -0.22886    -1.71347
H      0.38695     0.32209    -1.58393
O      0.68065    -1.39094    -2.36153
H      0.99760    -1.26264    -3.25976
O     -0.57496     1.29098     1.78654
H      0.32607     1.01063     1.56494
O     -0.59326     2.58604     1.17937
H     -1.35319     2.97722     1.61951
O      1.96639     0.48042     1.27989
H      2.69602     0.43177     1.90500
O      1.90057    -0.87535     0.82490
H      1.82382    -0.72585    -0.13727
O     -0.89806     1.30808    -1.15945
H     -0.85280     1.85909    -0.35323
O     -2.14260     0.62573    -0.97438
H     -1.85371    -0.13724    -0.44712
