 24
-909.9775813020326
O     -0.04541     2.49653    -0.07242
H     -0.87000     2.09627    -0.40304
O      0.77610     2.33329    -1.25077
H      1.41917     1.68941    -0.89342
O      0.37031    -1.55477    -0.73971
H      0.41918    -2.49102    -0.50850
O      0.60092    -1.56629    -2.15448
H     -0.04016    -0.88707    -2.42633
O      1.27708     0.68727     1.40983
H      0.67193     1.41199     1.15373
O      1.92030     0.41386     0.15024
H      1.42303    -0.36942    -0.15825
O     -1.93149    -0.53228     1.02723
H     -1.29846    -1.06696     1.53198
O     -1.86855     0.69716     1.74736
H     -2.80444     0.88885     1.85293
O      0.40385    -1.72308     2.27363
H      0.88401    -0.89496     2.05952
O      1.25797    -2.69605     1.67388
H      1.61917    -3.13277     2.45282
O     -0.88677     0.70764    -2.59416
H     -0.19013     1.36910    -2.42001
O     -1.71808     0.97079    -1.45485
H     -1.60681     0.16965    -0.92115
