 36
-1364.9791349481898
O     -0.48191     0.47015     2.71201
H     -0.78352     1.40493     2.72409
O      0.91503     0.59644     2.44600
H      0.93757     0.70857     1.46621
O      2.24787    -2.21520     1.95458
H      2.71279    -2.84731     2.51152
O      1.02191    -2.03670     2.65473
H      1.07089    -1.07710     2.85446
O     -2.76023     1.12258    -1.06051
H     -2.53310     0.38355    -0.47622
O     -1.73326     2.05023    -0.73606
H     -1.20448     2.06661    -1.56163
O     -0.47579     2.02518    -3.09614
H     -0.87098     2.03429    -3.97297
O      0.38573     0.88973    -3.14048
H     -0.17973     0.17085    -2.78352
O     -0.68441    -1.17622    -1.84698
H     -0.86786    -1.74299    -1.06564
O      0.12311    -2.02050    -2.67280
H      0.89499    -2.14299    -2.08891
O     -1.48246     2.91482     2.44493
H     -1.98001     3.49746     3.02465
O     -2.53272     2.22235     1.76872
H     -2.21007     2.28189     0.84306
O      2.07309     0.96947    -1.04559
H      1.62567     1.09637    -1.90405
O      0.93354     0.66718    -0.23081
H      0.69601    -0.22637    -0.55071
O      1.87859    -1.97543    -0.68478
H      2.07037    -2.02764     0.26944
O      3.11997    -1.48774    -1.21533
H      2.93640    -0.53039    -1.17750
O     -0.88328    -2.12236     0.64511
H     -0.35683    -2.19520     1.46324
O     -1.74673    -1.00536     0.87087
H     -1.27911    -0.47697     1.55058
