 28
-1061.6451421268341
O     -1.84813    -1.24166    -1.23281
H     -1.95020    -0.42472    -0.70177
O     -0.74651    -0.91704    -2.07739
H     -0.10032    -1.60162    -1.81730
O     -1.13263    -3.06806     0.58161
H     -1.47531    -2.49290    -0.13583
O     -1.58465    -2.34589     1.72505
H     -2.25047    -2.93804     2.08746
O      1.55129     2.05682     2.23676
H      1.39223     2.80065     1.64473
O      1.28540     0.96363     1.36437
H      0.92018    -3.00482     0.43739
O      2.05075     0.42049    -1.13965
H      1.81888     0.66349    -0.21547
O      1.03876     1.10384    -1.88300
H      0.39988     0.38750    -2.06579
O     -1.31207     0.34864     1.65004
H     -1.52875    -0.60108     1.63535
O     -1.94246     0.82054     0.45587
H     -1.38293     1.58826     0.22935
O      1.41199    -2.19209    -1.16249
H      1.91146    -1.35289    -1.20341
O      1.77191    -2.66823     0.13465
H      0.35942     0.73825     1.59538
O      0.48922     3.90662    -0.01218
H     -0.08705     4.64689    -0.21832
O     -0.33593     2.81758    -0.40636
H      0.27792     2.31806    -0.99333
