 40
-1516.643065162647
O      1.39971     3.01848     0.15279
H      1.42356     3.92588     0.47109
O      1.73693     2.25849     1.31330
H      0.89284     2.30132     1.83711
O      1.16671    -1.61163    -0.75120
H      1.84996    -0.97566    -0.44473
O      1.20762    -1.40656    -2.16542
H      0.31786    -1.69808    -2.44368
O     -0.99494     0.36801     0.44574
H     -1.48331     0.39277    -0.41442
O     -2.07695     0.43816     1.37769
H     -2.17973    -0.52680     1.51777
O     -0.63183     2.42776     2.51176
H     -1.34492     1.83205     2.20279
O     -0.37886     1.93208     3.82931
H      0.00881     1.06662     3.61217
O     -2.56144     0.46038    -1.72137
H     -3.17969    -0.25115    -1.94497
O     -1.95319     0.71397    -2.99644
H     -1.13312     1.15982    -2.68555
O      0.18870     1.63343    -1.78875
H      0.64182     2.09979    -1.06130
O      1.27359     1.25370    -2.63094
H      1.31198     0.29420    -2.45733
O      3.03462     0.06126     0.28870
H      2.67676     0.87877     0.69491
O      3.67063    -0.57116     1.39572
H      4.58964    -0.56073     1.11321
O     -1.21695    -2.58223    -0.05647
H     -0.31960    -2.21072    -0.17955
O     -1.56869    -2.18579     1.27140
H     -0.70933    -2.15714     1.73370
O      0.49200    -0.24028     2.49067
H      0.06312    -0.00183     1.63618
O      0.86257    -1.60020     2.28191
H      1.79948    -1.51180     2.05067
O     -2.51514    -2.15746    -2.39906
H     -2.14667    -2.41052    -1.53496
O     -1.31489    -1.84548    -3.11981
H     -1.51989    -0.92281    -3.37142
