 32
-1213.3092214332019
O      2.59827     0.29297     1.80502
H      1.87081     0.93616     1.68399
O      3.74049     1.10814     1.54408
H      3.87141     0.92393     0.60365
O     -1.19857     0.36182    -1.81605
H     -0.46246     0.81630    -1.34903
O     -0.83361    -1.01656    -1.70595
H     -1.48248    -1.36074    -1.05819
O     -3.15148     1.76085     0.35075
H     -3.73617     2.46048     0.05154
O     -3.51562     0.69791    -0.51953
H     -2.72119     0.64158    -1.09886
O      0.66781     1.75481    -0.52982
H      1.62873     1.80074    -0.65042
O      0.51819     1.74994     0.90119
H     -0.16528     1.05335     1.00908
O      3.41247     0.59857    -1.11960
H      2.80177    -0.17213    -1.09624
O      2.95097     1.26119    -2.29268
H      3.78287     1.39892    -2.75588
O      1.38327    -1.72494     0.47990
H      1.94969    -1.09859     0.97821
O      1.65190    -1.34636    -0.87626
H      0.74328    -1.22996    -1.24158
O     -1.11698    -0.77433     2.49666
H     -1.98873    -1.17864     2.39416
O     -0.83917    -0.51154     1.12845
H     -0.13068    -1.16692     0.94220
O     -2.57958    -2.27530    -0.07460
H     -3.16980    -2.96319    -0.40373
O     -3.39303    -1.62611     0.90382
H     -3.51537    -0.75328     0.48168
