 28
-1061.6446117241874
O      1.93065    -0.05093    -0.98579
H      2.05886     0.07912    -0.01934
O      0.62173    -0.62756    -1.03059
H      0.01271     0.12950    -0.85386
O      2.11317     2.16949     1.52508
H      2.21885     2.37184     0.58422
O      2.04846     0.74934     1.52964
H      1.17551     0.58900     1.93610
O     -1.02806    -1.11152     2.39451
H     -0.33032    -1.68281     2.03199
O     -0.52436     0.19217     2.10801
H     -0.51948     2.11255    -0.98743
O      1.97394     2.59023    -1.57635
H      1.89333     1.61421    -1.60644
O      0.64527     3.01408    -1.86131
H      0.67354     3.21484    -2.80300
O     -2.20115    -1.45509    -0.57971
H     -1.65798    -2.24956    -0.41474
O     -3.05161    -1.42162     0.56909
H     -2.40551    -1.37009     1.29549
O     -1.81489     0.94405    -1.71315
H     -2.17954     0.11121    -1.35389
O     -1.02127     1.36312    -0.60367
H     -1.02681     0.45866     1.32122
O     -0.47957    -3.39369     0.08784
H     -0.02320    -4.10482    -0.37300
O      0.59909    -2.64772     0.65635
H      0.69264    -1.92803    -0.01244
