 40
-1516.6415108142542
O     -0.27844     3.12601     1.22458
H     -0.06447     4.06421     1.18135
O      0.81266     2.57938     1.96241
H      1.33332     2.15368     1.24267
O      3.22816     1.28859     0.13400
H      3.27312     0.37131     0.46299
O      1.83832     1.35912    -0.15678
H      1.75555     0.73221    -0.91579
O     -3.11037     1.31254     0.35501
H     -3.17983     0.34501     0.38632
O     -1.76999     1.38624    -0.11223
H     -1.37390     2.05983     0.47491
O     -0.25401     0.18209     2.72319
H      0.05475     1.09241     2.85298
O      0.96007    -0.53127     2.96676
H      0.60577    -1.35148     3.34058
O      0.06657     3.05653    -1.99393
H      0.86132     2.79686    -1.50825
O     -0.45087     1.79009    -2.39176
H     -1.10770     1.59983    -1.68617
O      0.50776    -0.65421    -2.72144
H      0.25387     0.28604    -2.82844
O      1.73927    -0.50064    -2.02906
H      1.74325    -1.25290    -1.40467
O      2.69130    -1.18457     1.04261
H      1.97685    -0.88877     1.64147
O      2.01239    -2.07665     0.15333
H      1.57065    -2.69683     0.77102
O     -2.46648    -1.30632     0.12988
H     -2.48949    -1.37625    -0.84350
O     -1.05214    -1.27469     0.33878
H     -0.91413    -0.38225     0.72536
O     -0.43799    -2.89655     2.34472
H     -0.69127    -2.35858     1.56021
O      0.64546    -3.67093     1.83681
H      0.22441    -4.51077     1.63101
O     -2.55365    -0.26264    -3.13999
H     -2.95502    -0.58101    -3.95289
O     -2.09290    -1.47684    -2.55275
H     -1.12499    -1.35146    -2.62318
