 16
-606.6364300110316
O     -1.82622    -0.53208     0.97074
H     -1.91170    -0.74066     1.90583
O     -1.98575     0.89021     0.94717
H     -1.07262     1.18685     0.79704
O      0.73616     1.71694     0.47723
H      1.06128     1.00518    -0.11924
O      1.53306     1.46377     1.64473
H      2.18367     2.17113     1.58484
O      1.61780    -0.49488    -0.78917
H      0.80191    -0.91624    -1.12975
O      1.96367    -1.36605     0.29797
H      1.94665    -0.74431     1.03830
O     -0.86729    -1.32272    -1.40958
H     -1.32263    -1.06975    -0.58341
O     -1.29751    -0.27349    -2.27956
H     -1.64010    -0.78916    -3.01558
