 36
-1364.977396265308
O      0.47497     1.65151     0.91033
H      0.90289     1.26349     0.10888
O      1.59180     2.11239     1.65657
H      1.91115     1.25647     1.99687
O     -0.52075    -1.33881    -1.90333
H     -0.73917    -0.80883    -2.68646
O     -1.54457    -0.91088    -1.00028
H     -1.27388    -1.36112    -0.18828
O     -0.65328    -1.19390     1.83297
H     -1.37676    -0.58081     2.03870
O     -0.99055    -2.34734     2.61213
H     -0.34687    -2.96417     2.22733
O      1.89019    -0.51589     2.15836
H      0.96534    -0.81707     2.04554
O      2.61421    -1.44747     1.35550
H      2.52712    -1.08319     0.44938
O     -2.05907     1.17567     1.15233
H     -1.09847     1.38850     1.20934
O     -2.60287     2.18562     1.99116
H     -2.83194     2.86069     1.34090
O     -1.94023     2.14845    -1.36771
H     -2.14432     1.58904    -0.59107
O     -1.38417     3.32058    -0.77314
H     -0.56252     2.98593    -0.38616
O      1.95926    -0.77712    -1.19128
H      1.07580    -1.18272    -1.32848
O      1.64342     0.61622    -1.21246
H      1.33599     0.76586    -2.12691
O     -0.83305     0.91908    -3.52903
H     -1.25397     1.46540    -2.83373
O      0.49256     1.43861    -3.50615
H      0.56224     1.90359    -4.34501
O      0.75602    -3.44537    -0.13157
H      1.08603    -4.26506    -0.51448
O      1.06366    -3.61531     1.25547
H      1.76473    -2.93222     1.36376
