 40
-1516.6355692976783
O      3.09108    -1.46619     1.81292
H      2.74283    -0.61088     1.50364
O      2.67423    -2.33454     0.74067
H      2.00372    -2.88302     1.17563
O      1.76550     1.88359     1.75197
H      0.91534     1.88177     2.21749
O      1.62596     0.64986     1.04484
H      1.56714     0.94806     0.10899
O      1.49358     1.90745    -1.39175
H      0.58327     2.17285    -1.62740
O      2.19060     3.14005    -1.20534
H      2.21686     3.18877    -0.23914
O     -0.39671    -1.45693     1.89628
H      0.38595    -0.92237     1.67955
O     -0.08040    -2.71313     1.30670
H     -0.26078    -2.52394     0.36014
O     -3.20138    -0.34801     0.82331
H     -2.33611    -0.75996     0.97253
O     -2.96757     1.02667     1.09635
H     -2.90765     1.06041     2.06493
O      3.27562    -0.53233    -2.14547
H      3.02270     0.39734    -2.18358
O      2.09741    -1.04573    -1.53686
H      2.44086    -1.53663    -0.75721
O     -3.64716    -0.48319    -2.49749
H     -3.57740    -0.09380    -1.61817
O     -2.40763    -0.11732    -3.10355
H     -1.83235    -0.88783    -2.92948
O     -0.31637    -1.73570    -2.33987
H      0.64021    -1.53754    -2.23112
O     -0.75505    -1.60037    -0.98742
H     -0.76947    -0.62112    -0.90296
O     -1.33065     1.92726    -1.78145
H     -1.77191     1.29679    -2.39291
O     -1.03043     1.01418    -0.72391
H     -1.73907     1.22334    -0.06895
O     -0.45321     1.24462     3.41781
H     -0.12406     1.21865     4.32236
O     -1.58413     0.37690     3.49727
H     -1.23059    -0.42530     3.06680
