 32
-1213.3113877676876
O      2.79724    -1.00680     2.70417
H      3.17582    -1.83447     3.00839
O      1.45609    -1.39693     2.44370
H      1.00391    -0.53163     2.58901
O     -1.87041    -0.37177    -3.47999
H     -1.82870    -0.86763    -2.64818
O     -1.31508     0.87953    -3.08150
H     -2.08040     1.46598    -3.07347
O     -2.02324    -2.38606    -1.17517
H     -1.18384    -2.52970    -0.69794
O     -2.90195    -2.19768    -0.06692
H     -3.73147    -2.51934    -0.42612
O      0.85218     1.86114    -1.72673
H      0.15548     1.48487    -2.29976
O      0.11942     2.82112    -0.96566
H     -0.55537     2.25141    -0.55120
O      2.43364     1.43106     0.36090
H      1.96976     1.61190    -0.48695
O      2.68270     0.02396     0.24232
H      2.91642    -0.22015     1.15841
O     -1.47379     0.79602    -0.20525
H     -0.73282     0.18047    -0.39014
O     -2.00274     0.16838     0.96116
H     -2.37965    -0.65523     0.60097
O      0.09757     0.81979     2.50231
H     -0.73129     0.75310     1.98404
O      0.55821     2.13958     2.22126
H      1.27847     1.96963     1.59192
O      0.41867    -0.96715    -0.62771
H      1.31242    -0.62146    -0.36834
O      0.32917    -2.20536     0.08734
H      0.60416    -1.93711     0.98134
