 36
-1364.9744812740828
O      0.94045     1.07295     0.10025
H      0.89323     1.08535    -0.88036
O      1.82621     2.12964     0.44592
H      2.62422     1.59446     0.59350
O     -0.02332     0.80857    -2.34389
H     -0.87881     1.27725    -2.24809
O     -0.44115    -0.55798    -2.40951
H      0.12784    -0.99115    -1.73649
O      1.10629    -1.33710     1.89421
H      1.08060    -0.44043     2.30383
O     -0.09596    -1.91832     2.39373
H     -0.72621    -1.61086     1.71723
O      4.12388    -0.75011     1.47583
H      3.31654    -1.09100     1.88344
O      3.58748     0.07043     0.44571
H      3.24244    -0.58498    -0.19168
O     -3.31892    -1.25786    -1.40990
H     -3.65623    -2.12979    -1.63808
O     -3.05329    -0.69328    -2.68969
H     -2.06975    -0.67918    -2.65990
O     -0.38043     1.31248     3.52726
H     -0.95599     0.88819     2.87711
O      0.90960     1.10266     2.94560
H      1.13027     1.96263     2.55663
O     -2.28170     2.06640    -1.70684
H     -2.47544     1.79320    -0.79654
O     -3.56001     2.02024    -2.34961
H     -3.58022     1.09246    -2.63041
O      1.07826    -1.88100    -0.64497
H      1.11021    -1.64087     0.31956
O      2.45970    -1.87830    -0.99988
H      2.70386    -2.80155    -0.88667
O     -1.59973     0.68282     0.71264
H     -0.67082     0.94037     0.54835
O     -1.49504    -0.71572     0.44312
H     -2.17555    -0.84672    -0.24849
