 20
-758.3031862466592
O     -0.77463    -1.41385     1.84558
H     -1.40726    -0.99899     1.22904
O      0.46468    -0.81060     1.46090
H      0.88193    -1.50330     0.93016
O      3.36081    -0.30412     0.21148
H      4.18074    -0.35142    -0.28881
O      2.44274     0.04264    -0.82097
H      2.04317     0.85160    -0.44376
O     -3.20307    -0.95948    -0.62775
H     -2.63574    -0.65842    -1.35142
O     -2.69457    -0.14354     0.43319
H     -3.49001     0.28444     0.76961
O     -0.76201     0.18648    -1.97534
H     -0.77603     0.78116    -1.21078
O     -0.14375    -0.98325    -1.42722
H      0.79685    -0.75560    -1.47971
O     -0.17570     1.58267     0.57098
H      0.10001     0.71743     0.95723
O      1.08566     2.12906     0.18317
H      1.33603     2.64115     0.95823
