 40
-1516.631334528842
O     -0.43368     1.61951     0.39041
H     -0.09641     2.29719     1.03009
O     -1.74559     1.37227     0.92116
H     -2.14667     0.93506     0.15819
O      2.33876    -0.00781    -0.38134
H      2.22052    -0.03820    -1.35412
O      1.05900    -0.53460    -0.04199
H      0.49019     0.26499     0.09513
O      0.93512     3.03236     3.39993
H      0.79412     2.07086     3.36891
O      0.62770     3.38922     2.04635
H      1.50057     3.54331     1.65782
O      2.41155     2.68855    -0.12807
H      2.48484     1.71212    -0.10673
O      1.67455     2.86954    -1.33754
H      2.35135     3.20942    -1.93238
O     -2.72227    -0.29909    -2.57654
H     -1.79697    -0.02222    -2.51020
O     -3.21966     0.16510    -1.32696
H     -4.03196     0.61659    -1.58288
O      0.09843    -2.50760    -2.25384
H     -0.67145    -2.42213    -1.64342
O     -0.44534    -3.24773    -3.33921
H      0.02219    -4.07980    -3.23522
O     -1.65210    -1.67984     0.73823
H     -0.99891    -2.32018     1.08673
O     -1.96788    -2.23296    -0.55072
H     -2.73745    -1.69667    -0.78593
O      1.24747    -0.14592    -2.77316
H      0.85409    -1.03780    -2.66543
O      0.10608     0.68885    -2.55205
H      0.51088     1.45907    -2.12609
O      0.34788    -3.26113     1.60677
H      0.43453    -3.82200     2.38293
O      1.24436    -2.20094     1.94233
H      1.23987    -1.70241     1.09212
O     -0.78337     0.00964     3.45830
H     -1.21471     0.35947     2.66565
O      0.59174     0.27870     3.16669
H      0.91652    -0.59071     2.87678
