 40
-1516.6427265913462
O      3.02256    -2.22796    -0.99599
H      2.05404    -2.16151    -1.14249
O      3.46530    -1.09985    -1.75950
H      3.85723    -1.50788    -2.53714
O      1.03800     3.23296     0.83158
H      0.16572     3.13949     1.24456
O      0.71607     3.23401    -0.56135
H      1.26075     2.48616    -0.87873
O     -2.54348     1.67053     1.56408
H     -2.40160     1.99137     0.65001
O     -1.39193     2.17163     2.24281
H     -0.81219     1.39541     2.20056
O     -2.35307    -0.85343     3.09918
H     -2.71157    -0.01589     2.77090
O     -1.68023    -1.28628     1.91188
H     -0.80245    -1.55337     2.23294
O      2.02431     0.72681     1.31539
H      1.96829     1.69132     1.21518
O      0.64900     0.41052     1.06787
H      0.69306    -0.41092     0.54066
O      0.85589     0.62159    -2.56468
H      0.02753     1.06197    -2.25974
O      1.82651     1.02158    -1.59444
H      2.48165     0.29098    -1.66156
O     -1.54320     1.27431    -1.70652
H     -2.00596     0.55954    -1.21450
O     -1.80424     2.42379    -0.90496
H     -0.90501     2.81658    -0.84083
O     -0.35312    -2.49247    -2.08348
H     -1.19594    -2.34184    -1.62963
O      0.47839    -1.62382    -1.31391
H      0.55385    -0.82302    -1.89117
O     -2.76860    -1.99808    -0.91654
H     -3.63232    -2.01416    -1.33228
O     -2.74588    -0.67030    -0.39431
H     -2.38441    -0.85707     0.50822
O      2.18194    -2.32698     2.04032
H      2.49302    -1.45699     1.74629
O      0.90021    -2.36174     1.40676
H      0.99224    -3.08874     0.77714
