 40
-1516.6384679722144
O      2.31304    -0.16740    -0.04746
H      2.86196    -0.87529    -0.43335
O      2.58796    -0.31902     1.34296
H      1.83080     0.16085     1.74991
O     -0.42632    -1.16781    -0.55579
H      0.34050    -0.60629    -0.78344
O     -1.51064    -0.41606    -1.08446
H     -1.62887     0.29235    -0.42312
O     -1.45610     1.78726     1.00630
H     -1.48606     2.50603     0.33355
O     -2.68767     2.02365     1.69492
H     -2.85646     1.12510     2.02983
O      0.43912     0.66315     2.53045
H     -0.32510     1.04956     2.04821
O     -0.12152    -0.42862     3.25887
H      0.16823    -1.19510     2.72267
O     -1.89731     3.70679    -0.78555
H     -2.54846     4.41522    -0.73259
O     -2.00799     3.28250    -2.14956
H     -1.08397     3.36248    -2.41796
O      0.71911     2.06940    -1.07905
H      1.57666     1.62992    -0.95794
O      0.69387     2.37483    -2.48239
H      0.38930     1.53595    -2.86241
O      1.06253    -0.53442    -2.78132
H      1.26066    -1.48254    -2.71551
O     -0.19972    -0.52926    -3.46069
H     -0.81464    -0.52013    -2.70627
O      0.32749    -2.48769     1.62085
H     -0.01301    -2.08884     0.79378
O      1.67970    -2.80256     1.30634
H      2.12700    -1.94957     1.49039
O      2.06101    -2.87081    -1.35747
H      1.82566    -3.00011    -0.41302
O      3.36227    -2.30456    -1.21794
H      3.94617    -3.04272    -1.42506
O     -2.75306    -0.51698     2.65209
H     -1.85907    -0.52086     3.05281
O     -2.54680    -1.42818     1.56711
H     -3.15745    -2.13974     1.78382
