 32
-1213.3071863304665
O      2.99563    -0.37233     0.00585
H      3.88577    -0.37323     0.37167
O      2.68628     1.02419    -0.00810
H      1.85582     1.03156     0.52871
O     -1.20439    -1.60840    -0.33798
H     -0.47738    -1.57512     0.31602
O     -0.44396    -1.59970    -1.55403
H     -0.62160    -0.69200    -1.86982
O     -0.72941     1.01061    -2.20386
H      0.16711     1.33456    -2.42624
O     -1.04525     1.83350    -1.07536
H     -2.00678     1.71655    -1.04449
O      0.30482     0.83750     1.04550
H     -0.28266     1.23431     0.36488
O     -0.06187     1.52486     2.24282
H     -0.33255     0.75240     2.77030
O      1.87714     1.57436    -2.57301
H      2.30978     1.46504    -1.70425
O      2.21786     2.91873    -2.89952
H      2.69006     2.78641    -3.72654
O      1.07040    -1.95998     0.97616
H      1.77522    -1.36986     0.63698
O      1.50234    -3.24633     0.54705
H      0.95794    -3.36659    -0.24344
O     -2.01568    -1.30414     2.60368
H     -2.25097    -0.52047     2.08927
O     -0.75079    -0.93284     3.13912
H     -0.14475    -1.47075     2.60957
O     -3.51521     0.46436     0.77083
H     -4.38192     0.07048     0.90023
O     -3.23689     0.10790    -0.58331
H     -2.55601    -0.59658    -0.47099
