 40
-1516.6422839092784
O      1.00565    -1.13110    -4.22002
H      0.22535    -1.69187    -4.11921
O      1.09703    -0.59382    -2.90636
H      0.76490     0.31279    -3.01175
O     -1.91842    -1.12912     3.12326
H     -0.97300    -1.12114     2.89710
O     -2.01184     0.11176     3.82710
H     -2.61464    -0.11156     4.54185
O      0.45886     2.08030    -1.96691
H     -0.44691     1.84066    -1.69135
O      1.12923     2.19720    -0.69854
H      1.84250     1.52386    -0.80116
O      0.57741    -2.42600    -0.10351
H      0.14453    -2.65944    -0.95001
O      1.83090    -3.10757    -0.17110
H      2.43032    -2.34450    -0.08971
O     -2.24293     1.33333     1.45659
H     -2.30350     0.87378     2.32238
O     -2.52605     2.69836     1.78758
H     -1.62368     3.04834     1.80880
O      0.65631    -1.11086     2.15045
H      0.63534    -1.78414     1.42604
O      0.65304     0.04699     1.32082
H      0.62768     0.81397     1.93954
O     -1.27876    -0.13640    -1.06717
H     -0.67298    -0.00171    -0.31783
O     -1.91757     1.12537    -1.16407
H     -2.16265     1.28626    -0.22015
O     -1.42778    -1.98885    -2.97197
H     -1.39274    -1.28222    -2.29427
O     -0.99714    -3.10969    -2.20231
H     -1.79461    -3.64534    -2.14537
O      2.90571    -0.62086     0.12816
H      2.12776    -0.30445     0.62375
O      2.83776     0.18067    -1.05172
H      2.37005    -0.38683    -1.69569
O      0.87623     2.38490     2.52240
H      1.66217     2.89615     2.73664
O      0.20225     3.22341     1.59148
H      0.49945     2.84379     0.73364
