 36
-1364.9676398038987
O      0.88435     1.45163     0.28217
H      1.11744     1.82555    -0.59093
O      2.11051     0.82131     0.64349
H      1.81404    -0.09263     0.75877
O      1.45628    -1.39565    -1.73469
H      1.39528    -0.56124    -2.24960
O      0.21015    -2.03356    -2.01423
H     -0.25280    -1.88765    -1.17491
O     -1.31962    -0.06735     3.02646
H     -1.07282     0.87515     3.12423
O     -0.13066    -0.60338     2.44684
H     -0.46836    -1.37739     1.95884
O      2.16304    -2.10983     1.21045
H      3.07270    -2.26631     1.48186
O      1.97906    -3.10505     0.20028
H      1.92072    -2.53406    -0.60108
O     -0.66927     2.50064     2.57184
H      0.16646     2.43212     2.08919
O     -1.55226     2.99163     1.55697
H     -1.91265     2.17613     1.16265
O     -1.29852     0.05815    -0.22822
H     -0.52412     0.58470     0.07318
O     -2.35130     0.48068     0.64136
H     -2.05774     0.11175     1.50278
O      1.21852     0.95811    -3.07982
H      0.27427     1.20505    -3.12871
O      1.70655     2.00198    -2.23724
H      2.59148     2.14481    -2.58872
O     -1.38815     1.48398    -2.46611
H     -1.48901     0.79152    -1.77646
O     -1.33803     2.65975    -1.65099
H     -2.22479     3.02152    -1.76557
O     -0.70542    -3.83365     0.60213
H      0.24368    -3.72091     0.43415
O     -1.07407    -2.45054     0.70857
H     -1.99222    -2.45416     0.41606
