 40
-1516.6422069562443
O      3.96901     1.76522     1.71091
H      4.61778     2.47346     1.65269
O      3.29702     1.91446     0.46108
H      2.38234     2.11690     0.75203
O     -1.09724     1.73138    -2.75649
H     -0.71204     1.86580    -1.87989
O     -2.43761     2.20386    -2.57276
H     -2.87534     1.34351    -2.41732
O     -0.41346     0.13840     2.69159
H     -1.26431    -0.23472     2.39017
O      0.49384    -0.69091     1.95852
H      1.16031    -0.93073     2.61685
O      3.08660    -0.58060    -0.47922
H      3.31467     0.33637    -0.21388
O      1.80556    -0.35882    -1.07177
H      1.45402    -1.27029    -1.17671
O     -1.65218    -0.86417    -2.67988
H     -1.24563    -0.02317    -2.96797
O     -2.86671    -0.34710    -2.11925
H     -2.77128    -0.64132    -1.19106
O     -0.13451    -2.87783     0.01193
H      0.70768    -3.01188     0.48485
O      0.33200    -2.59089    -1.30531
H     -0.47711    -2.24763    -1.72185
O     -2.81442     3.05574     0.01287
H     -2.91277     3.05671    -0.95007
O     -2.56214     1.67309     0.23846
H     -1.58195     1.65217     0.22856
O      0.67985     1.99697     1.13043
H      0.27387     1.45625     1.83873
O      0.05883     1.39791    -0.01350
H      0.70548     0.69992    -0.28191
O      2.19850    -3.22904     1.32508
H      2.85628    -3.92650     1.23999
O      2.97750    -2.11201     1.74042
H      3.00716    -1.57560     0.92111
O     -2.69992    -0.67868     1.48782
H     -2.93578     0.19673     1.12478
O     -2.37426    -1.35648     0.27236
H     -1.53674    -1.82099     0.46279
