 40
-1516.6509016568775
O      3.38089    -0.42429     2.96894
H      2.85124    -1.16802     2.63185
O      2.69504     0.65784     2.34631
H      1.96486     0.83064     2.96975
O      1.45357     1.55933    -0.04831
H      1.12841     1.64065    -0.97184
O      2.78135     1.06592    -0.22646
H      2.99729     0.87577     0.71248
O     -1.36318     1.48479     1.50822
H     -1.24158     1.24859     2.44486
O     -0.65934     0.38075     0.95184
H      0.17231     0.80373     0.62605
O      0.72160     0.83596     4.13678
H      0.80451     0.54348     5.04991
O     -0.44175     0.15988     3.68319
H     -0.05981    -0.60625     3.20400
O      0.07093     0.35602    -3.10149
H      0.83012    -0.13322    -2.71451
O      0.08746     1.55431    -2.31998
H     -0.84738     1.60890    -2.02651
O     -1.39405    -1.93523    -0.01005
H     -1.24786    -0.99728     0.25845
O     -1.05810    -1.90132    -1.38988
H     -1.80317    -1.42723    -1.80225
O     -2.86135     0.72890    -0.67659
H     -2.56821     1.15310     0.14221
O     -2.49770     1.72302    -1.64359
H     -3.08421     1.47314    -2.37281
O      1.64911    -2.13242     1.80491
H      1.60222    -1.86912     0.86334
O      0.31720    -1.95240     2.26815
H     -0.22911    -2.34294     1.56453
O      2.08242    -0.90183    -1.83797
H      2.52613    -0.22879    -1.27803
O      1.51326    -1.74835    -0.83794
H      0.58133    -1.81798    -1.13512
O     -2.51192    -0.37140    -3.47411
H     -1.59909    -0.04951    -3.58886
O     -3.23181     0.70656    -4.06378
H     -3.83604     0.23287    -4.64488
