 24
-909.9786367051793
O     -1.70908    -0.22268     0.69554
H     -2.34266    -0.25210    -0.05054
O     -0.89535    -1.37671     0.44110
H     -0.29757    -1.33329     1.20866
O      0.50228    -0.85935    -1.78154
H     -0.05164    -1.10095    -1.01258
O     -0.08721     0.37814    -2.18742
H      0.27525     0.97957    -1.50387
O      3.04108    -0.19327    -1.23238
H      2.14702    -0.42598    -1.56420
O      2.80461    -0.06345     0.17067
H      2.54073    -0.94988     0.44617
O     -3.31112    -0.07909    -1.40452
H     -4.23936     0.12376    -1.55156
O     -2.68904     1.17374    -1.67788
H     -1.85195     0.86160    -2.05783
O      0.99986    -0.86831     2.31658
H      0.96524     0.10106     2.25186
O      0.61183    -1.10558     3.66569
H      1.45115    -1.37248     4.05201
O      0.89920     1.72200    -0.11932
H      1.68263     1.15838     0.05375
O      0.17886     1.57117     1.10874
H     -0.59436     1.04628     0.82347
