 32
-1213.3076677830456
O      1.26778    -2.60909     1.29090
H      0.38813    -2.71671     0.86444
O      0.88775    -2.65218     2.67292
H      0.79551    -3.59609     2.83434
O     -0.56309    -0.15107    -1.37105
H     -0.25007     0.37041    -0.61381
O      0.27389    -1.29829    -1.34995
H      1.14430    -0.87775    -1.16277
O     -1.78133    -2.10678     2.16163
H     -0.92058    -1.92137     2.56858
O     -1.34059    -2.75447     0.95070
H     -1.93151    -2.31953     0.30840
O     -0.39837     0.91497     1.96879
H      0.49563     0.64836     1.68098
O     -0.84543     1.67468     0.82751
H     -1.75242     1.32628     0.74796
O      2.16450     0.22243    -0.37018
H      2.05888     1.19628    -0.42657
O      1.97914     0.02211     1.03738
H      1.87116    -0.94865     1.07925
O      1.04188     1.02198    -3.13588
H      0.31453     0.53736    -2.70198
O      0.42697     2.30434    -3.32562
H      0.68501     2.50101    -4.22994
O      1.60387     2.79696    -0.20976
H      0.80087     2.87992     0.32755
O      1.41848     3.79992    -1.21690
H      1.09822     3.26171    -1.95863
O     -2.89795    -0.90105    -0.28081
H     -2.19706    -0.51355    -0.83484
O     -3.03768     0.08597     0.75374
H     -2.84646    -0.45864     1.53226
