 24
-909.9810287171163
O     -2.74317    -0.66169     0.38325
H     -2.46982     0.13422    -0.12239
O     -1.90740    -1.66874    -0.19460
H     -2.30760    -1.84445    -1.05554
O      1.31181    -1.94150    -0.84130
H      1.52937    -1.14441    -1.34750
O      0.68481    -1.39134     0.30460
H     -0.27017    -1.50878     0.08622
O      2.37472     0.47057    -2.31763
H      3.32437     0.61395    -2.39788
O      1.88796     1.76859    -1.97851
H      1.82185     1.69434    -1.00104
O     -1.59559     1.40251    -0.95051
H     -0.98650     1.71203    -0.24870
O     -0.72387     0.52121    -1.68335
H     -0.06503     1.13034    -2.05876
O     -0.88904    -0.09213     2.55281
H     -1.70567    -0.44937     2.16406
O     -0.29686    -1.20901     3.21106
H      0.23155    -1.58975     2.49565
O      0.23794     1.72704     0.96605
H     -0.09399     1.10712     1.64874
O      1.47313     1.10847     0.59055
H      1.21791     0.16132     0.52026
