 36
-1364.9715935875874
O     -1.39299    -1.00790    -0.93340
H     -1.83816    -1.55810    -0.24158
O     -0.02304    -1.30253    -0.64893
H      0.44871    -0.76720    -1.31549
O     -2.59558    -2.42764     0.91718
H     -2.18993    -3.00710     1.57052
O     -3.45814    -1.60766     1.71135
H     -3.00557    -0.74628     1.61956
O      0.40517    -1.78206     1.87379
H      0.26298    -1.51499     0.93605
O      0.91179    -3.09582     1.71121
H      1.60953    -2.95828     1.05765
O      3.02264     0.07253    -2.07698
H      2.92196    -0.07303    -1.11856
O      2.14957    -0.92992    -2.60162
H      1.96943    -0.57177    -3.47616
O     -2.31783     1.45708    -1.30304
H     -2.08818     0.51126    -1.21377
O     -1.97807     1.67478    -2.67148
H     -2.53749     2.42601    -2.88647
O     -1.10982     0.51812     2.68889
H     -0.81359    -0.40190     2.60749
O     -1.98557     0.62034     1.55708
H     -1.49149     1.25277     0.99304
O      0.54491     1.38507    -1.81815
H     -0.28816     1.59836    -2.28951
O      1.49746     2.30273    -2.36944
H      2.26592     1.70948    -2.35592
O      3.03152    -0.61084     1.73318
H      2.22226    -0.82651     2.21436
O      2.45834    -0.08401     0.53688
H      1.99888     0.72990     0.85572
O      0.93803     1.81748     1.58331
H      0.37101     1.45792     2.29198
O     -0.09382     2.16955     0.64818
H      0.31597     1.97254    -0.22016
