 32
-1213.3088659204739
O      2.25274    -0.57927     0.96552
H      2.39480    -0.86732     0.03469
O      2.25275     0.84567     0.81677
H      1.36200     1.07255     1.15672
O     -1.47947    -1.79203     0.38910
H     -1.08123    -2.04172     1.23840
O     -0.32146    -1.41947    -0.35511
H     -0.51674    -0.49028    -0.56253
O     -0.90147     1.44449    -1.11826
H     -0.25432     1.90545    -1.67261
O     -2.11881     2.15799    -1.37380
H     -2.73881     1.40658    -1.32841
O     -0.26007     1.51466     1.44651
H     -0.63811     1.59157     0.54619
O     -1.25377     0.71612     2.11103
H     -0.68194     0.04400     2.52810
O      1.75590     2.21673    -1.76667
H      2.13460     1.76385    -0.99519
O      2.11511     1.33681    -2.82651
H      2.74189     1.86723    -3.32806
O      2.57460    -1.03901    -1.64517
H      2.44632    -0.26534    -2.22091
O      1.59603    -1.94169    -2.16665
H      0.90893    -1.89181    -1.48257
O      0.03064    -2.42711     2.60791
H      0.05732    -2.87770     3.45677
O      0.53070    -1.13500     2.94713
H      1.25009    -1.03450     2.28563
O     -3.93202     0.26442     0.61719
H     -3.17205     0.57844     1.12961
O     -3.30445    -0.12713    -0.60318
H     -2.75965    -0.88907    -0.32233
