 24
-909.9796946072784
O     -2.53630    -2.01169     0.47714
H     -3.49488    -2.07015     0.42819
O     -2.34471    -0.60385     0.61808
H     -1.50345    -0.59198     1.11827
O     -0.46964    -1.88989    -1.23416
H     -1.26602    -2.09338    -0.70272
O      0.48955    -2.79222    -0.67460
H      0.70645    -2.35247     0.16616
O      2.60491     0.48674    -0.77242
H      3.26955     0.37935    -1.46104
O      2.20754     1.84812    -0.92148
H      1.32449     1.72460    -1.30604
O     -1.68546     0.90019    -1.87766
H     -2.22278     0.43205    -1.22450
O     -0.40625     0.75482    -1.27343
H     -0.24439    -0.21499    -1.35136
O      1.19290    -1.13665     1.42182
H      1.59236    -0.53049     0.78012
O      0.03290    -0.40139     1.83052
H      0.36363     0.52796     1.91269
O      0.97187     2.06767     1.61306
H      1.67877     2.33557     1.00312
O     -0.18054     2.71943     1.09043
H     -0.45465     2.10878     0.38804
