 40
-1516.6373887555212
O     -0.69938     2.49384    -2.31438
H      0.13975     2.16336    -1.92931
O     -0.87891     3.68621    -1.54876
H     -1.06815     4.32744    -2.23846
O      3.22824     0.24354     1.29226
H      2.51680     0.88482     1.07418
O      2.66592    -0.45555     2.40743
H      2.79218    -1.39236     2.15728
O     -1.65201     1.57054     0.82645
H     -1.71657     0.61133     0.62036
O     -2.54267     2.14878    -0.13694
H     -1.97031     2.83351    -0.53442
O     -0.00466    -0.20785     2.49545
H      0.97301    -0.21229     2.58948
O     -0.44096     0.64802     3.55428
H     -0.85442     1.34626     3.03403
O      1.49418     1.53771    -1.05257
H      1.64113     0.56526    -1.05008
O      1.33474     1.82931     0.34046
H      0.37047     1.78801     0.46902
O      2.54127    -3.05623     1.78986
H      2.34338    -3.73736     2.43939
O      1.23353    -2.77546     1.27541
H      1.46567    -2.29357     0.46363
O     -2.00022    -1.92507     1.17776
H     -1.36190    -1.52948     1.79061
O     -1.87490    -0.98955     0.10652
H     -2.71951    -1.08312    -0.38360
O     -3.03289     0.41830    -2.14449
H     -2.98539     1.08460    -1.42864
O     -3.90352    -0.54666    -1.55467
H     -4.38728    -0.86161    -2.32263
O     -0.38545    -1.97891    -2.22203
H     -0.66319    -1.94386    -1.29545
O     -0.25870    -0.58899    -2.52473
H     -1.18703    -0.30667    -2.59478
O      1.88955    -1.14158    -0.86829
H      1.57643    -1.43069    -1.74306
O      3.31572    -1.23094    -0.96954
H      3.53953    -0.65899    -0.21243
