 40
-1516.636023996767
O      1.20146    -1.47719    -1.67877
H      2.16447    -1.52091    -1.56075
O      1.08308    -0.42907    -2.65402
H      1.28948     0.33835    -2.08311
O     -0.77406    -2.26003     0.62690
H     -1.32295    -2.24733    -0.17270
O     -0.20591    -0.96020     0.55652
H      0.32602    -0.98452    -0.27617
O      0.60478     2.93548     3.27753
H      0.89073     3.82871     3.48852
O      1.76153     2.42398     2.61786
H      1.59924     1.45825     2.69492
O     -1.57669    -0.02924    -2.82766
H     -0.63455    -0.19294    -3.02976
O     -1.40750     0.85951    -1.70764
H     -2.25705     0.75725    -1.23597
O     -0.81584     2.01705     1.17176
H     -0.36568     2.45484     1.91913
O     -1.79261     1.23012     1.85904
H     -1.48784     0.34025     1.62973
O      1.25669     1.18215    -0.62546
H      0.30625     1.41116    -0.55491
O      1.91660     2.41126    -0.39017
H      1.96423     2.41439     0.57728
O     -3.67587     0.61993    -0.23776
H     -3.45129     1.10119     0.57208
O     -3.74931    -0.72531     0.25988
H     -4.01543    -1.19897    -0.54539
O     -3.96581    -2.24349    -1.96032
H     -4.19597    -3.17615    -1.91180
O     -2.54546    -2.31318    -1.84390
H     -2.27828    -1.45950    -2.25690
O      1.37260    -0.21546     2.50350
H      0.70919    -0.47619     1.81988
O      2.58656    -0.60280     1.85717
H      2.77987    -1.44835     2.27395
O      4.83668    -1.70306    -0.19442
H      5.56792    -1.36351    -0.71973
O      3.75401    -0.94686    -0.73499
H      3.43365    -0.48407     0.05803
