 28
-1061.639586477908
O     -0.41814    -3.05891     0.47110
H     -0.36030    -2.19914     0.92857
O      0.78595    -3.05097    -0.29274
H      1.27748    -3.78539     0.08672
O      0.78406     0.07613    -1.57897
H      0.65636     0.96596    -1.19181
O      1.64954    -0.53964    -0.61810
H      1.29035    -1.45105    -0.56699
O     -0.33178    -0.62356     1.75774
H     -0.34499     0.30008     1.41518
O      0.74783    -0.59731     2.68647
H     -1.77606    -2.68304    -1.08241
O     -0.01158     2.34741    -0.33941
H     -0.96664     2.34258    -0.56149
O     -0.06369     1.96225     1.03996
H      0.88149     2.05255     1.28786
O     -2.53426     1.64107    -0.89440
H     -2.37324     0.66956    -0.87452
O     -2.63339     1.87427    -2.30164
H     -3.57018     2.07176    -2.38549
O     -1.63552    -0.84872    -0.97351
H     -0.77508    -0.60834    -1.38822
O     -2.02381    -1.99810    -1.71568
H      0.31015    -0.30934     3.49269
O      3.19374     1.38017     0.47622
H      2.66352     0.71357    -0.00035
O      2.47359     1.51370     1.70441
H      2.34193     0.59853     1.99054
