 24
-909.9741167985243
O     -2.80708     1.71181    -0.91567
H     -2.63490     1.48505     0.01266
O     -3.76925     0.70873    -1.24798
H     -4.53781     1.24237    -1.47464
O      0.37585    -2.59989    -0.61753
H     -0.34513    -2.11750    -0.18577
O      1.52271    -1.91957    -0.11225
H      1.78566    -1.35997    -0.86098
O      0.77744    -0.49756     2.00550
H      1.12423    -1.03199     1.25370
O      1.30995     0.81294     1.78781
H      2.16986     0.62672     1.36730
O     -2.03641    -1.15733     0.68476
H     -2.54370    -0.90101    -0.09633
O     -1.74202     0.12905     1.25312
H     -0.84758    -0.02819     1.62279
O      3.44944     0.43266     0.20742
H      3.99898    -0.35620     0.20532
O      2.89620     0.38512    -1.11235
H      2.09441     0.93821    -1.00400
O      0.54219     1.60104    -0.68804
H      0.49195     1.47327     0.27696
O     -0.18241     0.46915    -1.18338
H     -1.02550     0.88146    -1.42912
