 36
-1364.9762003695873
O      1.09831     1.93318    -0.01680
H      1.59776     1.21443    -0.44946
O      1.27073     1.60398     1.36576
H      0.36196     1.65241     1.72339
O     -0.38542    -1.93621    -0.52470
H      0.49808    -1.71293    -0.89141
O     -1.12915    -2.25796    -1.69383
H     -1.65143    -1.45183    -1.78476
O     -1.13502     1.16626     2.45565
H     -1.93286     1.68202     2.23660
O     -1.27095     0.08651     1.52807
H     -0.52524    -0.49321     1.80435
O      0.85502    -1.37732     2.20859
H      0.91654    -2.33964     2.09979
O      2.07855    -0.94099     1.59850
H      1.91255     0.02065     1.55563
O     -3.12849     2.56513     1.26393
H     -2.67096     2.51003     0.40023
O     -3.03967     3.96041     1.54956
H     -3.97169     4.18720     1.61426
O     -1.52375     0.68007    -1.01976
H     -1.45338     0.32704    -0.10602
O     -1.44685     2.08114    -0.76232
H     -0.50681     2.17174    -0.49485
O      2.14700    -1.37719    -1.19779
H      2.50951    -1.51986    -0.30964
O      2.39852     0.02035    -1.36868
H      2.11958     0.14944    -2.28820
O      0.13905     0.29986    -3.07452
H     -0.47265     0.55770    -2.35354
O      0.90817     1.49243    -3.22628
H      0.92211     1.56990    -4.18465
O      1.67470    -4.04530     0.32037
H      1.65163    -4.93073    -0.05572
O      0.41238    -3.97706     1.00046
H     -0.05832    -3.34021     0.42038
