 28
-1061.6492863453952
O      1.56181    -2.13870    -1.07331
H      1.52583    -2.04384    -0.09820
O      1.73917    -0.76988    -1.44933
H      2.59181    -0.52167    -1.05797
O      0.07306    -1.02671     1.75402
H     -0.44538    -1.47489     1.04603
O      1.41989    -1.38397     1.44817
H      1.88370    -0.53406     1.53518
O      0.54073     2.10705    -0.46259
H      0.00375     2.01195     0.35553
O     -0.09802     1.15088    -1.30853
H     -0.20981    -2.47597    -1.43500
O     -3.09178     0.04097    -1.19372
H     -3.42821     0.11345    -2.09350
O     -2.68552     1.36728    -0.87648
H     -1.72784     1.31761    -1.09939
O     -2.30553     1.34068     1.85913
H     -2.61495     1.44033     0.94503
O     -0.89845     1.47653     1.67313
H     -0.59486     0.56729     1.86111
O     -1.48260    -1.84536    -0.22165
H     -2.07052    -1.12817    -0.53612
O     -1.17900    -2.52676    -1.43852
H      0.52816     0.39376    -1.30796
O      3.05134     1.26780     0.01405
H      2.21668     1.73299    -0.20242
O      2.80711     0.92983     1.37303
H      3.51715     1.38833     1.83205
