 36
-1364.973251201513
O      1.35006     3.08826    -1.45398
H      0.84630     2.51488    -2.05947
O      0.54356     4.26794    -1.46177
H      1.11008     4.88227    -1.93913
O     -0.80551    -2.52762     3.10177
H     -0.02038    -1.94493     2.97837
O     -1.87988    -1.60925     2.93979
H     -2.05692    -1.31737     3.83884
O     -0.90224    -3.68230     0.43268
H     -1.02403    -3.66395     1.39068
O      0.13415    -2.71808     0.28716
H     -0.36453    -1.89579     0.08019
O     -2.10902    -0.03450     0.78235
H     -1.96791    -0.67786     1.50882
O     -1.03690    -0.36787    -0.10077
H     -0.33969     0.27377     0.17695
O     -1.65922     2.58022     0.26055
H     -2.14251     1.74372     0.33775
O     -2.01420     3.01947    -1.05555
H     -1.40182     3.76333    -1.12111
O     -0.96041     0.29037    -2.91871
H     -1.37046     0.16902    -2.04965
O     -0.61213     1.67268    -2.92151
H     -1.35384     2.10429    -2.45743
O      0.97599     1.20788     0.63060
H      1.21411     2.08470     0.27747
O      2.20051     0.47692     0.50617
H      2.03338    -0.02127    -0.32507
O      1.33142    -1.05978     2.52155
H      1.77404    -0.43048     1.90670
O      2.13988    -2.23097     2.42048
H      1.71466    -2.66498     1.66366
O      1.85434    -2.06822    -2.06131
H      1.32885    -2.59281    -1.43954
O      1.42996    -0.74504    -1.72671
H      0.79119    -0.51508    -2.42548
