 32
-1213.312636435403
O      1.63321    -3.16585     2.00185
H      2.35184    -3.00795     2.62288
O      1.91191    -2.26751     0.93605
H      1.65072    -1.39607     1.31340
O      0.49884     3.23434    -2.38761
H      0.20296     4.07251    -2.75722
O      1.71475     3.61127    -1.73498
H      1.56369     3.16644    -0.88950
O     -0.02567    -2.11025    -1.27089
H      0.81797    -2.01002    -0.80438
O     -0.41518    -0.74542    -1.44984
H     -1.34221    -0.74216    -1.10018
O     -0.71164     2.61289     0.53019
H     -0.65321     1.80664     1.08127
O     -1.24879     2.06586    -0.67859
H     -0.64456     2.45304    -1.33818
O      1.35472     1.04014    -0.73958
H      0.63489     0.46216    -1.09774
O      2.46405     0.62322    -1.53534
H      2.52606     1.37321    -2.14139
O     -0.85617    -2.28027     1.80138
H     -0.04827    -2.80577     1.96295
O     -1.51516    -3.04390     0.79250
H     -0.98897    -2.81663     0.00500
O     -2.83904    -0.76082    -0.41575
H     -2.93938    -1.47861     0.22604
O     -3.06057     0.39995     0.39858
H     -2.48882     1.04118    -0.06744
O     -0.24333     0.34059     1.88811
H     -0.58030    -0.57442     1.79726
O      1.17199     0.16338     1.76171
H      1.35238     0.67500     0.94415
