 24
-909.9764497543363
O     -2.00628    -1.46207    -0.07706
H     -2.48406    -0.61419    -0.19801
O     -1.98879    -1.57295     1.34508
H     -2.38089    -2.44145     1.47133
O      0.49322    -0.98548    -0.97380
H     -0.37233    -1.29334    -0.62746
O      0.15504    -0.47692    -2.26418
H     -0.58008     0.11703    -2.05337
O      2.77207     0.32327    -0.58396
H      2.05806    -0.33537    -0.72281
O      3.38779    -0.15007     0.61178
H      4.17752    -0.58549     0.27437
O     -2.61516     1.16993    -0.33393
H     -1.83365     1.50044     0.16467
O     -2.19648     1.35697    -1.69170
H     -1.64896     2.15302    -1.63906
O      0.35742    -0.36567     1.87976
H     -0.46461    -0.88339     1.80583
O      1.33359    -1.40781     1.89540
H      2.09799    -0.93430     1.52930
O     -0.24470     1.91831     0.62581
H      0.16277     1.10238     0.98674
O      0.47949     2.22114    -0.57404
H      1.28974     1.69527    -0.50132
