 32
-1213.3135295168915
O      2.51784     0.29326     0.84995
H      2.53819     1.08181     0.28602
O      2.18405     0.80352     2.13949
H      1.29890     1.18876     1.96411
O     -1.56338    -2.77279     0.63088
H     -2.19130    -2.02909     0.62656
O     -1.24849    -2.80279    -0.77040
H     -0.31789    -2.50957    -0.73604
O     -0.56979     1.81057    -1.32165
H      0.08482     2.16206    -1.95616
O     -1.80933     2.34140    -1.78738
H     -2.29554     1.51261    -1.89368
O     -0.12951     1.74004     1.29628
H     -0.29895     1.83483     0.33590
O     -1.22323     0.91177     1.69304
H     -0.74785     0.17362     2.13116
O      1.66136     2.31040    -2.63975
H      2.18924     2.32087    -3.44513
O      2.35993     1.39693    -1.79866
H      1.82439     0.58175    -1.89250
O      0.98172    -1.45574    -0.44578
H      1.52114    -0.84471     0.10608
O      0.75098    -0.70991    -1.63640
H     -0.12507    -0.32295    -1.45655
O     -0.01583    -1.24934     2.58589
H     -0.18141    -2.01391     2.01084
O      1.07329    -1.66906     3.40362
H      1.71896    -0.97982     3.18994
O     -2.73344    -0.48737    -0.01898
H     -2.18443     0.16492     0.46028
O     -2.23112    -0.42795    -1.35859
H     -2.04761    -1.37855    -1.48601
