 24
-909.9740558314357
O     -2.73872     0.60261     0.27465
H     -2.23221    -0.06228     0.78084
O     -3.15247    -0.10551    -0.89354
H     -2.31752    -0.22820    -1.36690
O      0.96070    -2.80761     0.48058
H      1.04581    -3.76443     0.54270
O      1.87671    -2.49000    -0.56742
H      2.46033    -1.88220    -0.08896
O      2.51589     0.98575     0.00311
H      3.14058     1.56852     0.44298
O      2.50747    -0.13131     0.89015
H      1.63133    -0.02917     1.32375
O     -0.88145    -0.79413     1.66635
H     -0.32885    -1.43822     1.19599
O      0.07500     0.22292     1.96661
H     -0.23454     0.99718     1.45440
O      0.00954    -0.42829    -1.23262
H      0.85123    -0.84331    -1.47718
O     -0.39303     0.24505    -2.43470
H     -0.57471     1.12980    -2.06894
O     -1.03421     2.35812    -0.75777
H     -1.75703     1.82291    -0.35470
O     -0.06276     2.32133     0.28846
H      0.71860     1.99292    -0.17889
