 32
-1213.3155254816224
O      1.03335    -2.32453     2.12372
H      0.13089    -2.15280     2.44411
O      0.97038    -1.52608     0.92798
H      1.77600    -1.76460     0.44636
O      2.90644    -0.46954    -0.83506
H      3.04667     0.33695    -0.31028
O      1.81260    -0.00205    -1.64030
H      1.35161    -0.84590    -1.81998
O     -2.83031    -0.08445    -0.53958
H     -2.67444    -0.81820     0.08604
O     -1.52236     0.10064    -1.08393
H     -1.46153     1.07732    -1.13565
O     -1.23427     2.76261    -1.20170
H     -1.60320     3.55677    -1.59899
O     -0.67911     3.24932     0.02057
H      0.27645     3.16635    -0.19137
O      1.72616     2.50269    -0.81937
H      1.59064     1.69927    -1.35717
O      2.44816     1.94832     0.28197
H      1.72227     1.71553     0.89329
O     -0.64970    -2.34949    -1.35926
H     -0.92886    -1.40794    -1.40473
O      0.56692    -2.31824    -2.09311
H      0.34126    -2.79421    -2.89929
O     -2.20484    -2.11452     1.15335
H     -1.43669    -2.40332     0.63675
O     -1.59215    -1.60353     2.33464
H     -1.56177    -0.64465     2.15415
O      0.39309     0.95615     1.67399
H      0.53911     0.03492     1.35707
O     -1.03416     0.99149     1.79450
H     -1.24363     1.75173     1.23218
