 28
-1061.6468612590882
O      0.04494    -1.01086     1.63916
H     -0.69956    -1.30698     1.07357
O      1.14365    -1.14028     0.73374
H      1.40831    -0.21098     0.59990
O      3.00221    -2.00002    -1.44162
H      2.63806    -1.93372    -0.54503
O      3.90659    -0.89908    -1.46220
H      4.76083    -1.34119    -1.46664
O     -3.45823     0.29684     2.73017
H     -2.70240     0.87366     2.52594
O     -3.96094     0.04579     1.42074
H     -2.81865    -0.82048     0.51157
O     -0.98798     1.44727     1.98801
H     -0.49336     0.60203     1.98239
O     -0.83569     1.87460     0.63260
H     -1.28925     1.16853     0.12589
O      0.55482     0.40860    -2.78698
H      0.84001     0.97880    -2.04647
O      0.45109    -0.86409    -2.14697
H      1.32976    -1.25564    -2.27997
O     -1.70505    -0.16163    -0.82754
H     -0.91161    -0.52453    -1.28583
O     -2.07245    -1.23924     0.04058
H     -4.82410     0.46991     1.43423
O      1.45731     1.96385    -0.73742
H      0.68072     2.02485    -0.14080
O      2.31574     1.10905     0.02266
H      2.86251     0.72579    -0.67828
