 32
-1213.3038075630752
O     -2.03624     0.45389    -0.34511
H     -1.73607    -0.23729     0.28853
O     -1.34214     0.10953    -1.54646
H     -1.58913    -0.82904    -1.64689
O      2.05839    -1.71958    -2.82680
H      2.11856    -0.86865    -2.37412
O      0.70247    -2.07730    -2.51556
H      0.31487    -2.20286    -3.39005
O     -2.11137    -3.55673    -2.41834
H     -3.00653    -3.84884    -2.22528
O     -1.97001    -2.50109    -1.47501
H     -1.29909    -2.84497    -0.85965
O      1.25974     0.74400    -1.25954
H      0.33858     0.52443    -1.50246
O      1.34014     0.08120     0.00235
H      1.67669     0.79672     0.58138
O      2.53963     2.08738     1.25546
H      3.49609     2.10898     1.15132
O      2.16072     3.39687     0.82709
H      1.41086     3.16904     0.26069
O     -1.03892    -1.39422     1.33596
H     -0.47660    -0.89545     1.96678
O     -0.06990    -2.08798     0.54086
H      0.48262    -1.34248     0.22490
O      0.32380     0.45957     2.72454
H     -0.00300     1.29462     2.31775
O     -0.23063     0.55207     4.03261
H      0.57374     0.58492     4.55616
O     -0.58590     2.60963     0.19419
H     -1.09223     1.83085    -0.13344
O     -0.82821     2.55321     1.60382
H     -1.74484     2.83192     1.69619
