 20
-758.2978362468159
O      0.57982    -2.34562     1.62436
H      1.12414    -2.39149     2.41595
O     -0.62742    -1.78539     2.16245
H     -0.95721    -1.28929     1.38966
O     -0.92571     0.86122     0.66138
H     -0.01759     0.66026     0.36067
O     -1.62820    -0.28835     0.16644
H     -2.50574     0.11084     0.03129
O      1.45367    -0.98773    -0.50440
H      1.13045    -1.46658     0.28537
O      1.65712     0.32011     0.05195
H      2.31942     0.65289    -0.57956
O      3.34040     0.74657    -1.99425
H      3.08118     1.28618    -2.74840
O      3.38283    -0.56705    -2.57361
H      2.65368    -0.98366    -2.09208
O     -3.25122     2.55976     0.19675
H     -2.37220     2.31004     0.51714
O     -3.81870     1.25843    -0.01377
H     -4.51187     1.23204     0.65424
