 32
-1213.3101197330911
O      2.24041    -1.49635     0.77944
H      2.00020    -2.09763     0.05218
O      2.62863    -0.36659    -0.01596
H      2.68952     0.31568     0.67653
O      1.45678    -2.36511    -1.62409
H      0.59563    -2.70860    -1.90918
O      1.42152    -1.07654    -2.27861
H      1.84270    -0.53033    -1.58686
O     -2.50313    -0.57327     0.01987
H     -1.65997    -0.61613     0.51694
O     -2.07691     0.12706    -1.15217
H     -2.13352    -0.56061    -1.83076
O      0.26043     1.33068    -0.68028
H     -0.63825     0.97501    -0.83500
O     -0.02839     2.49848     0.09708
H      0.73320     2.52349     0.69054
O      1.69145     2.04161     2.43531
H      1.03079     1.32974     2.58206
O      2.83403     1.29897     2.03126
H      3.35287     1.23398     2.83918
O     -0.93424    -2.81620    -2.88493
H     -0.95445    -3.34161    -3.69117
O     -1.18069    -1.49993    -3.39196
H     -0.31521    -1.08992    -3.22890
O     -0.30273     0.26598     2.53576
H     -1.08221     0.80200     2.27587
O     -0.28608    -0.70655     1.48777
H      0.66059    -0.82744     1.27171
O     -3.41278     2.18361     1.03493
H     -3.57743     1.30252     0.67432
O     -2.13352     1.99390     1.63106
H     -1.52258     2.35832     0.95684
