 24
-909.9713171633518
O     -2.60832    -0.67075    -0.46856
H     -3.51956    -0.74866    -0.15957
O     -2.01115    -1.88309    -0.00909
H     -1.35752    -1.52902     0.61586
O      2.04321    -2.46185    -1.65945
H      1.79243    -3.38397    -1.56139
O      1.18737    -1.85911    -0.69396
H      0.59232    -1.31976    -1.26255
O      2.60169    -0.04168     0.75118
H      2.12140    -0.73685     0.25773
O      2.29217     1.10839    -0.03563
H      3.15169     1.33129    -0.41021
O     -1.98904     2.29301     0.03453
H     -1.27418     2.02732    -0.57702
O     -1.23307     2.39480     1.24781
H     -1.85961     2.81959     1.84054
O      0.40286    -0.06526     2.67853
H      1.30038     0.04103     2.33614
O     -0.31680    -0.09179     1.44511
H     -0.69634     0.81417     1.39101
O      0.00330     1.23594    -1.43272
H      0.80753     1.04788    -0.90824
O     -0.43152    -0.06560    -1.84364
H     -1.29156    -0.14717    -1.38018
