 36
-1364.977065889101
O      0.86264    -1.47517    -0.35131
H      0.11137    -1.22350     0.21790
O      1.91869    -1.63686     0.60526
H      2.42943    -0.81740     0.45209
O     -2.73277    -2.65647     1.76100
H     -2.71725    -3.48457     1.27102
O     -3.64088    -1.85106     0.99605
H     -3.01212    -1.19571     0.63844
O     -0.45358    -1.43202     2.31724
H     -1.34071    -1.83447     2.19338
O      0.35262    -2.59127     2.58402
H      1.08904    -2.37605     1.98726
O      2.80708    -0.35603    -2.89349
H      3.43588    -0.94024    -3.32682
O      1.63842    -1.16791    -2.84981
H      1.54585    -1.33943    -1.88697
O     -2.90681     2.97264    -1.63427
H     -3.24419     3.86533    -1.52449
O     -1.75169     3.01964    -0.80881
H     -1.98603     2.38636    -0.09457
O     -1.82742     1.00578     0.94183
H     -0.93070     1.03807     1.36771
O     -1.72430    -0.16528     0.12294
H     -1.35209     0.19898    -0.70763
O      0.34843     1.80753    -1.97507
H     -0.32862     2.41218    -1.61245
O     -0.43103     0.61435    -2.07993
H      0.09988     0.09306    -2.70057
O      2.36607     1.68201    -0.19226
H      1.70617     1.65531    -0.91415
O      3.18996     0.52840    -0.39115
H      3.12294     0.35467    -1.34852
O      0.61047     1.34295     1.83549
H      1.36624     1.48517     1.22787
O      1.18210     0.57049     2.89492
H      0.58217    -0.19914     2.85148
