 32
-1213.3116372954346
O      2.91767     0.05526    -1.23395
H      1.99225    -0.08466    -1.50871
O      2.81616    -0.20079     0.17278
H      2.75390     0.70593     0.54049
O      1.01196    -1.76734     1.28300
H      1.73603    -1.35313     0.75791
O      0.19575    -2.34165     0.26348
H     -0.66275    -2.41276     0.71709
O     -0.01088     2.72665    -1.12843
H      0.22370     2.83138    -0.18328
O      1.28482     2.85445    -1.72134
H      1.16689     3.64965    -2.25161
O      0.31353    -0.53074    -1.68871
H      0.20198    -1.25521    -1.03826
O     -0.93775     0.14719    -1.58739
H     -0.64971     1.06486    -1.41145
O      1.25179     2.72692     1.25399
H      0.95526     1.92467     1.73499
O      2.58949     2.38938     0.86769
H      2.56688     2.66680    -0.05913
O     -2.82813    -1.73620    -1.30586
H     -2.16423    -1.04344    -1.51980
O     -2.18602    -2.90443    -1.80825
H     -2.80891    -3.16665    -2.49367
O     -2.68175    -0.98670     1.83632
H     -2.97062    -1.24023     2.71692
O     -2.35083    -2.24839     1.26609
H     -2.77402    -2.15922     0.38608
O     -0.85196     0.89231     1.18918
H     -1.57074     0.26642     1.36777
O      0.07309     0.57424     2.23382
H      0.39170    -0.30835     1.95156
