 36
-1364.9851587096991
O      1.35523     2.55632     0.98877
H      0.65929     2.83307     1.61664
O      1.25358     1.13871     1.13516
H      0.33544     0.99717     0.81098
O      0.28615    -1.61270     0.51756
H      1.15965    -1.36038     0.13264
O     -0.40337    -2.05580    -0.65308
H     -0.79210    -1.19150    -0.92799
O     -1.27720    -0.67648     2.51957
H     -0.62099    -1.02786     1.88964
O     -2.45754    -0.65335     1.71415
H     -2.57358    -1.59833     1.47819
O      2.48053    -1.00468    -0.80966
H      2.39641    -0.95783    -1.78749
O      3.10234     0.25118    -0.50983
H      2.52013     0.56939     0.21467
O     -0.85564     2.80819     2.46050
H     -1.49817     3.50161     2.64088
O     -0.77863     2.10464     3.69741
H     -1.09711     1.23291     3.41295
O     -1.17501     0.99025     0.09701
H     -1.79277     0.39305     0.58970
O     -1.08442     0.39677    -1.20169
H     -0.31651     0.90328    -1.54272
O      1.83203    -0.72540    -3.37472
H      1.74738     0.23630    -3.45374
O      0.47217    -1.15393    -3.45297
H      0.39691    -1.69081    -2.65364
O      2.18638     2.01777    -2.32474
H      2.72872     1.45621    -1.73841
O      0.95921     2.03693    -1.59634
H      1.19591     2.44113    -0.73453
O     -3.48727    -3.20499    -0.22508
H     -3.87720    -4.06156    -0.02748
O     -2.41163    -3.18711     0.71694
H     -1.64288    -3.03135     0.13104
