 36
-1364.9797944878767
O      1.06219     0.82942     3.56397
H      0.20963     0.47731     3.27157
O      1.80220     0.74776     2.33950
H      2.51206     0.12928     2.54802
O      1.33564    -2.19461     1.25358
H      1.23341    -2.94054     0.64570
O      0.71164    -1.20171     0.43163
H      0.81298    -0.37461     0.94137
O      1.13705     2.98834    -0.38064
H      0.30609     2.58607    -0.70302
O      0.84751     3.17780     1.00160
H      1.50992     2.60650     1.41309
O      0.82569    -3.46893    -1.31826
H      0.04307    -2.93696    -1.58625
O      1.89577    -2.75847    -1.94583
H      2.19107    -3.38968    -2.61246
O     -2.06856     0.92485     2.34539
H     -2.73236     0.63328     1.70094
O     -0.90227     0.90850     1.52689
H     -0.66895     1.84734     1.45183
O     -3.60024    -0.05674     0.21400
H     -2.98383    -0.76564    -0.07812
O     -3.47725     0.86197    -0.86728
H     -4.35788     0.85158    -1.25376
O      2.85184     0.93257    -0.57752
H      2.38609     1.79060    -0.62762
O      2.12338     0.19612    -1.56717
H      2.07045    -0.68163    -1.15803
O     -0.93401     1.60728    -1.31078
H     -1.84164     1.28042    -1.15274
O     -0.40021     0.64367    -2.22089
H      0.55049     0.59947    -1.95790
O     -1.27465    -1.84276    -1.78076
H     -1.01834    -0.90900    -1.96140
O     -1.68610    -1.80060    -0.40902
H     -0.84167    -1.56040     0.03625
