 32
-1213.313316297453
O     -1.19416     0.84260     3.15634
H     -1.24180     1.54376     3.81300
O     -0.24919    -0.05578     3.74279
H      0.40032    -0.11396     3.01359
O     -0.08429    -1.62082    -1.43264
H      0.24598    -0.73994    -1.71824
O      1.11430    -2.34338    -1.14995
H      1.07490    -2.35532    -0.17554
O     -0.83897     1.39675     0.58608
H     -0.95055     1.16480     1.53539
O     -2.17480     1.32599     0.08194
H     -2.35336     0.37337     0.19639
O      0.83310     0.77305    -2.18871
H      0.22658     1.40832    -2.62482
O      1.25392     1.52971    -1.04644
H      0.50066     1.40748    -0.43318
O      3.69649     0.60246    -0.48640
H      2.85540     1.05109    -0.70412
O      3.20871    -0.68569    -0.09531
H      2.84804    -1.05370    -0.91684
O     -1.08677     2.44421    -2.97071
H     -1.44953     2.75190    -3.80516
O     -1.97547     1.37685    -2.64873
H     -2.06131     1.49715    -1.68464
O      0.79943    -1.89042     1.44779
H     -0.17039    -1.83694     1.54750
O      1.18898    -0.51553     1.54973
H      2.01284    -0.51552     0.99646
O     -1.87689    -1.98689     1.35409
H     -2.38475    -2.80329     1.33177
O     -2.22870    -1.39192     0.11302
H     -1.42471    -1.54893    -0.43813
