 40
-1516.6433338735287
O      2.49623     0.73999    -0.97487
H      2.31707    -0.22716    -0.82356
O      2.12877     0.93842    -2.33988
H      1.49062     0.22289    -2.48552
O     -0.47237    -0.64894     2.39318
H     -0.80707     0.23798     2.63400
O      0.94137    -0.44232     2.35462
H      1.01807     0.42171     1.90297
O     -1.30216     0.95738    -1.51877
H     -0.84289     1.83513    -1.42275
O     -1.36461     0.54070    -0.15444
H     -1.56954    -0.41705    -0.24886
O     -0.62474    -3.36137     2.65141
H     -0.64788    -2.38917     2.60547
O     -1.88201    -3.68267     2.05240
H     -2.08253    -4.52355     2.47341
O     -1.28868     2.53877     1.51302
H     -1.34976     1.78257     0.88555
O     -1.38792     1.86255     2.75639
H     -2.25255     2.13632     3.07438
O      1.38228     3.32314     1.05182
H      0.60626     3.44467     1.61424
O      1.52577     1.91306     1.17760
H      1.91580     1.64705     0.31606
O     -0.03115     3.21810    -1.22154
H      0.61870     3.46120    -0.52954
O      0.72986     3.28249    -2.42633
H      1.25747     2.46492    -2.37430
O     -1.84135    -2.03036    -0.81783
H     -1.67636    -2.13392    -1.77450
O     -0.82763    -2.88416    -0.27667
H     -1.27592    -3.27879     0.50273
O      1.56101    -1.65995    -0.63117
H      0.71167    -2.13929    -0.49367
O      2.29943    -1.95186     0.55084
H      1.81378    -1.43592     1.22493
O     -1.22704    -1.72287    -3.40347
H     -0.80087    -2.24044    -4.09240
O     -0.16302    -0.84931    -3.03490
H     -0.66740    -0.16169    -2.54292
