 28
-1061.6384668737344
O     -0.79284    -1.01954    -2.51844
H     -0.19909    -0.31695    -2.20801
O     -1.75905    -1.03917    -1.46842
H     -2.29580    -0.25294    -1.68379
O      0.19176     1.29768    -0.94806
H     -0.09954     1.06820    -0.03496
O      0.85064     2.55153    -0.77532
H      1.76669     2.25051    -0.69954
O      1.28779    -1.38501     2.52289
H      1.45619    -0.44395     2.36739
O      0.29543    -1.35187     3.54958
H      0.60770    -2.47360    -1.67863
O     -1.30766    -0.79289     1.21072
H     -1.33048    -0.97403     0.24920
O     -1.14402     0.63530     1.25036
H     -2.02853     0.95937     1.02803
O     -2.54060     1.52541    -1.86479
H     -1.64691     1.87278    -1.71032
O     -3.21523     1.98351    -0.69310
H     -3.86940     2.58179    -1.06698
O      1.41701    -1.44163    -0.36176
H      1.25996    -1.77962     0.53969
O      1.42529    -2.60953    -1.17872
H     -0.50918    -1.37150     3.01462
O      2.98405     0.73371    -0.08111
H      2.48180    -0.07193    -0.30849
O      2.76236     0.78262     1.33183
H      3.63192     0.55226     1.67091
