 28
-1061.6305785262414
O      0.92331    -2.27683     0.13236
H      0.48372    -2.50445     0.96132
O      1.89326    -1.32727     0.60146
H      2.49739    -1.28563    -0.16809
O     -2.02907    -2.77222    -0.19704
H     -1.18874    -2.66024    -0.66392
O     -1.69306    -2.36015     1.12283
H     -1.57217    -1.40086     1.01391
O     -0.18639     0.12090     1.80728
H      0.68807     0.17311     1.37972
O     -0.27367     1.38933     2.45176
H      2.47231     0.47538    -1.62563
O     -2.95294    -0.34932    -1.34305
H     -3.06576    -1.22511    -0.94854
O     -1.88334     0.12416    -0.51442
H     -2.19111     0.98825    -0.19378
O     -0.88092     3.31936    -0.09312
H     -1.39531     3.58440    -0.86256
O     -1.88470     2.69155     0.71433
H     -1.31374     2.31775     1.40934
O      3.54489    -1.05395    -1.49237
H      4.50022    -1.14988    -1.43715
O      3.42911     0.35104    -1.76449
H     -0.40407     1.12725     3.36851
O      0.81793     0.81137    -1.36855
H      0.09689     0.24024    -1.05045
O      1.17223     1.53978    -0.18809
H      0.50220     2.24735    -0.18438
