 36
-1364.978321024693
O      0.56275     0.38656     3.20665
H     -0.25954     0.14512     2.73366
O      0.93050     1.60256     2.54239
H      1.67441     1.31980     1.98671
O     -1.14611    -1.52732     0.92408
H     -0.35789    -1.88237     1.39738
O     -1.53107    -0.45639     1.79349
H     -1.91516     0.19722     1.17379
O      0.75554    -2.71822    -1.12017
H      1.12493    -3.11972    -0.32104
O      1.92057    -2.05313    -1.62632
H      1.69247    -1.99181    -2.55998
O      0.67088     0.64747    -2.46735
H      1.28709     1.21325    -2.94609
O      0.48394    -0.44018    -3.38392
H     -0.33718    -0.79406    -3.01489
O     -3.04280    -1.35977    -1.79419
H     -3.63312    -0.71806    -1.38803
O     -1.78011    -0.78050    -1.53516
H     -1.47806    -1.24173    -0.71372
O      0.24569     3.05002    -0.30342
H     -0.42999     2.61763    -0.86179
O     -0.49771     3.19723     0.90930
H      0.04814     2.69673     1.54237
O      1.73432     0.21341     0.14679
H      1.64421    -0.13709    -0.76322
O      2.39730     1.45319    -0.02948
H      1.63826     2.05179    -0.18176
O     -2.50150     1.59136     0.26191
H     -2.04433     2.32108     0.72263
O     -1.96093     1.80612    -1.05415
H     -1.85278     0.87936    -1.34764
O      1.00382    -2.23784     2.32460
H      1.14742    -1.50476     2.94644
O      2.12319    -2.15101     1.44322
H      2.00550    -1.28245     1.01668
