 16
-606.639705145397
O     -1.94750    -0.27123    -0.29167
H     -1.46871    -0.51580     0.52086
O     -2.14966     1.12689    -0.05989
H     -3.10414     1.18068    -0.16262
O      0.75903    -1.55096    -1.54132
H      0.89455    -1.51589    -0.58264
O      0.32227    -0.21753    -1.81842
H     -0.59692    -0.23137    -1.49286
O      0.94144     1.66432     0.78793
H      0.45166     2.39802     0.40281
O      1.87618     1.31498    -0.24228
H      1.32873     0.75693    -0.84104
O     -0.08461    -0.62777     1.65392
H      0.36396     0.22286     1.45501
O      0.90753    -1.53836     1.18579
H      0.80188    -2.25701     1.81459
