 32
-1213.3126394488456
O      2.19157    -1.51653     3.84264
H      3.02274    -1.57494     4.32154
O      2.45887    -0.41409     2.97855
H      2.31095    -0.81061     2.09258
O     -0.70282    -0.91390    -0.85708
H     -1.08435    -0.00839    -0.94155
O     -1.82531    -1.72076    -1.20644
H     -1.58542    -1.91918    -2.12694
O     -0.47693    -1.28216    -3.68840
H      0.27627    -0.82564    -3.26653
O     -1.14252    -0.16624    -4.29032
H     -1.03925    -0.36488    -5.22544
O      1.56054    -0.90730     0.54075
H      0.68462    -0.99958     0.09920
O      1.97210     0.40517     0.13596
H      1.50736     0.96997     0.79639
O      1.27037     0.40352    -2.42535
H      1.64288     0.41487    -1.51497
O      0.67690     1.70279    -2.50476
H     -0.00885     1.53839    -3.16368
O     -1.88523     1.82881     0.62285
H     -2.22050     0.94497     0.90881
O     -1.60720     1.55333    -0.75598
H     -0.71810     1.92376    -0.86772
O      0.49989     1.80386     1.84723
H     -0.39183     1.95503     1.47122
O      0.14029     0.95296     2.94856
H      1.00830     0.53976     3.13752
O     -1.23090    -1.17146     1.96358
H     -0.85344    -0.36461     2.36084
O     -2.41121    -0.69060     1.30039
H     -2.40119    -1.27188     0.52223
