 36
-1364.976097912539
O      1.94446    -2.37254     1.17379
H      1.11784    -2.87519     1.28577
O      2.42110    -2.83254    -0.08092
H      2.15008    -2.11423    -0.66814
O     -0.67569    -0.57787     1.99842
H     -1.21206    -1.39318     2.05650
O     -1.52183     0.27124     1.22444
H     -1.28521     1.15025     1.58559
O     -0.58619    -3.45696     1.30750
H     -0.90784    -3.08534     0.45697
O     -1.66927    -3.06448     2.14791
H     -1.63330    -3.73534     2.83436
O     -1.33063    -1.98894    -0.74244
H     -0.54794    -1.60174    -1.20691
O     -2.30755    -2.10261    -1.76984
H     -2.73897    -1.24398    -1.68965
O      0.78803    -0.69032    -1.71551
H      1.07035    -0.01928    -1.05908
O      0.34259     0.07020    -2.83574
H     -0.51927     0.39111    -2.50511
O     -1.74061     0.95318    -1.39651
H     -1.69326     0.65771    -0.46819
O     -1.51936     2.36138    -1.26202
H     -0.58131     2.44771    -1.53636
O     -0.75221     2.82652     1.45216
H     -1.09346     3.10491     0.58899
O      0.65696     3.02635     1.30893
H      0.98973     2.12785     1.11748
O      1.07991     2.65681    -1.62856
H      1.71110     2.70404    -2.35417
O      0.98463     4.01825    -1.20199
H      0.99982     3.86208    -0.24205
O      2.60141     0.19597     1.09088
H      2.52548    -0.77237     1.20427
O      1.29305     0.48678     0.61469
H      0.69140    -0.02965     1.20661
