 40
-1516.6416056274481
O     -0.72772     3.11993     0.19048
H     -0.06149     3.24865    -0.50810
O     -0.65371     4.31818     0.97199
H     -0.11594     4.01371     1.71380
O      3.45794    -0.37791    -0.52241
H      3.14826    -1.11716    -1.07545
O      2.81137    -0.76471     0.69605
H      2.76329     0.08277     1.17453
O      1.64844    -2.06554    -1.43006
H      0.99881    -1.52579    -1.92831
O      0.91243    -2.36102    -0.23590
H      1.41670    -1.82347     0.41176
O     -2.90544     1.07150     0.14927
H     -2.44707     1.91025     0.31674
O     -1.78849     0.25769    -0.17890
H     -1.19986     0.37098     0.61231
O     -0.24829    -0.83488    -2.83531
H     -1.01568    -1.42484    -2.67497
O     -0.81451     0.46358    -2.63360
H     -1.21615     0.38323    -1.73765
O      1.62915     1.70987    -0.79987
H      2.32547     1.07481    -1.07171
O      1.15547     2.29490    -2.01328
H      0.49559     1.62991    -2.29998
O      1.70868     2.41228     1.73355
H      1.65955     2.24017     0.76602
O      2.76684     1.52615     2.08208
H      3.50683     2.12232     2.23625
O     -2.62620    -3.28425     1.51539
H     -2.28047    -3.40684     0.61017
O     -2.41123    -1.87624     1.68940
H     -3.30500    -1.51471     1.66292
O     -0.51844     0.57631     2.08291
H      0.17502     1.19950     2.35265
O      0.17945    -0.66904     2.06103
H     -0.57071    -1.28366     2.09027
O     -1.48469    -3.37530    -0.96410
H     -0.58895    -3.02210    -0.77136
O     -2.11621    -2.29465    -1.64902
H     -2.24276    -1.65320    -0.93234
