 16
-606.6352428248952
O     -2.39792    -0.10028     1.64774
H     -2.96025     0.61029     1.96930
O     -1.69920     0.57141     0.59655
H     -0.79759     0.61792     0.97129
O      2.07471     0.30440     1.36071
H      1.94965     0.12430     0.40760
O      0.71655     0.37257     1.81286
H      0.62862    -0.45141     2.30312
O      1.57500     0.20618    -1.29093
H      0.71531    -0.19083    -1.53375
O      1.38493     1.57671    -1.64182
H      1.19644     1.97471    -0.78562
O     -0.88630    -0.87213    -1.69237
H     -1.49019    -0.57683    -0.99446
O     -0.33675    -2.05177    -1.09786
H     -0.19163    -2.58558    -1.88352
