 36
-1364.9746507986035
O      1.62700     2.22982    -0.75024
H      1.28179     2.29144    -1.66989
O      1.26340     0.86495    -0.53977
H      1.87888     0.54794     0.14995
O     -0.76010    -1.90744     0.17271
H     -0.35239    -2.71813    -0.17986
O     -1.57600    -1.48450    -0.92883
H     -1.78651    -0.57720    -0.63326
O      1.35146    -0.82456     2.37974
H      1.21155     0.12447     2.50710
O      2.24186    -0.81491     1.26361
H      1.99009    -1.63609     0.81679
O      1.24077    -0.93509    -2.48055
H      1.26547    -0.21825    -1.80760
O     -0.05625    -0.72126    -3.05485
H     -0.65490    -1.07452    -2.36474
O      0.60061     1.93321     1.79783
H      0.92626     2.51564     1.08851
O     -0.24700     2.76846     2.58438
H     -1.11871     2.46910     2.28959
O     -1.57992     1.01193    -0.06711
H     -0.70630     1.05798     0.36905
O     -2.47857     1.51521     0.91255
H     -2.51534     0.75303     1.52729
O     -0.94707     2.40635    -2.73416
H     -1.07937     2.04785    -1.84514
O      0.35656     1.92603    -3.05621
H      0.19035     0.99717    -3.32329
O     -2.06657    -0.65834     2.45203
H     -1.36292    -1.11434     1.96467
O     -1.35525    -0.11239     3.55538
H     -1.66007    -0.66557     4.28387
O      0.70073    -3.89514    -0.94255
H      1.10271    -4.69237    -0.58825
O      1.75177    -2.95255    -0.76504
H      1.60116    -2.35984    -1.52976
