 20
-758.3074786751471
O      1.56661    -1.39796    -0.28635
H      1.82406    -1.09396    -1.16669
O      0.73686    -2.53827    -0.52492
H     -0.06546    -2.12605    -0.89152
O      1.71418    -0.26740     2.82672
H      1.24291    -0.82498     3.45142
O      0.71711    -0.07456     1.83013
H      1.06989    -0.63184     1.09528
O      1.48033     1.69282    -0.48542
H      1.47756     1.51558     0.46400
O      0.09297     1.91940    -0.72319
H     -0.11100     1.19851    -1.34551
O     -0.72947    -0.03930    -2.33532
H     -1.38363     0.05833    -3.03481
O     -1.33260    -1.02990    -1.50588
H     -1.60852    -0.50028    -0.72093
O     -1.79572     0.23350     0.78160
H     -0.98982     0.19457     1.32680
O     -2.12141     1.62386     0.82718
H     -1.39206     1.99545     0.30153
