 20
-758.3063478624368
O     -1.48981    -0.20056     1.42174
H     -1.90173     0.14694     0.61679
O     -0.92481    -1.42699     0.94711
H      0.03001    -1.27294     1.03983
O      1.95054    -1.45403     0.28016
H      1.61844    -1.59970    -0.61609
O      2.76022    -0.28598     0.06960
H      2.45299     0.27767     0.79436
O      0.55647     1.88502     1.43309
H     -0.18883     1.30022     1.63096
O      1.60931     1.20986     2.13053
H      2.01317     1.93439     2.61743
O     -2.14664     1.02698    -1.23530
H     -2.05086     0.14728    -1.65179
O     -0.77167     1.43797    -1.26837
H     -0.76349     2.07139    -1.99517
O      0.17955    -0.94913    -1.90559
H      0.09724    -0.04194    -1.56386
O     -1.15894    -1.42094    -1.71292
H     -1.13615    -1.63419    -0.76120
