 36
-1364.9767031367605
O      2.34555    -0.25572     2.70148
H      1.69270     0.23851     3.21672
O      3.15929     0.80822     2.19470
H      3.99923     0.63826     2.63196
O      0.37774    -2.18536    -0.80995
H      0.05806    -2.49722     0.07230
O      0.41535    -0.77927    -0.50378
H      1.35969    -0.51320    -0.64363
O     -0.25234     0.84426     3.31052
H     -0.33866     1.19291     2.40434
O     -0.78644    -0.46261     3.17427
H     -1.70066    -0.36594     3.47141
O     -1.15622    -0.89765    -3.50600
H     -1.32464    -1.47739    -4.25516
O     -1.72482    -1.61109    -2.41280
H     -0.93153    -1.95830    -1.95233
O     -0.11909     2.19656     0.57297
H      0.71405     2.13786     0.06594
O     -1.04706     2.53965    -0.46637
H     -1.73234     1.85251    -0.37095
O     -1.93776    -0.16946     0.47744
H     -1.01568    -0.24927     0.13555
O     -2.62079     0.35389    -0.65902
H     -2.37467    -0.27430    -1.36257
O     -0.04085     2.24290    -2.97124
H     -0.39813     2.36552    -2.06848
O      0.65383     1.00227    -2.85905
H     -0.03577     0.34594    -3.07099
O      2.14382     1.72220    -0.86874
H      1.76730     1.49770    -1.75458
O      2.74959     0.47931    -0.50412
H      2.97492     0.64678     0.43120
O     -1.91430    -2.74814     1.37506
H     -2.07672    -1.86537     0.99236
O     -0.50811    -2.68543     1.62811
H     -0.45596    -1.95482     2.26822
