 36
-1364.979406672514
O      1.26564     2.48866    -0.79745
H      1.34536     1.87688    -1.55823
O      2.14895     1.85860     0.12904
H      1.71858     2.05089     0.99089
O     -1.79129    -2.10186     0.08735
H     -1.33095    -2.69680    -0.53183
O     -1.96611    -0.96991    -0.76879
H     -2.68004    -0.48388    -0.31183
O     -0.00287     1.32573     2.74078
H      0.14788     0.58923     2.10693
O      1.18028     2.10244     2.59387
H      1.67341     1.88820     3.39130
O      0.24446    -0.76466     1.14223
H     -0.59255    -1.23483     0.90482
O      1.11318    -1.81389     1.57753
H      1.94531    -1.46057     1.20848
O     -1.21830     1.92992     0.06997
H     -0.38616     2.34796    -0.23173
O     -1.70575     2.86292     1.03380
H     -1.41074     2.43336     1.84693
O     -3.71423     0.68820     0.52630
H     -3.22359     1.51956     0.41995
O     -4.85668     0.92050    -0.29865
H     -5.55502     0.95071     0.36016
O      3.01062    -0.66686     0.12376
H      2.72443     0.26156     0.00082
O      2.98354    -1.19058    -1.20410
H      2.49212    -2.02414    -1.07231
O      0.27088    -0.36686    -2.55472
H     -0.21467    -0.08515    -1.75940
O      1.40804     0.48375    -2.57109
H      2.10599    -0.11979    -2.23708
O      0.10745    -3.13208    -1.50972
H      0.28446    -2.34961    -2.05324
O      1.34145    -3.31036    -0.81312
H      1.07827    -3.18466     0.11362
