 32
-1213.311652546394
O      1.68154    -0.94128     0.78874
H      1.81796    -0.06917     0.35791
O      2.94331    -1.56362     0.60919
H      2.84341    -1.85692    -0.31040
O     -0.65639    -2.03048     0.12245
H      0.21094    -1.71471     0.46425
O     -0.51933    -1.83781    -1.29140
H     -0.74578    -0.88430    -1.37514
O     -1.11974     0.73175    -1.21310
H     -0.54835     1.38865    -1.64968
O     -2.27666     0.66759    -2.04799
H     -2.84726     0.16753    -1.44397
O     -1.25658     2.62532     1.15348
H     -1.37265     2.06301     0.37246
O      0.15894     2.63039     1.31778
H      0.29097     1.94058     2.00084
O      1.18935     2.26022    -1.09903
H      0.88226     2.53543    -0.20540
O      2.04747     1.17568    -0.73984
H      2.08424     0.65670    -1.56381
O      2.04169    -1.94884    -1.94776
H      1.08825    -2.06639    -1.73172
O      1.98613    -0.71074    -2.64742
H      2.21562    -0.97188    -3.54479
O     -0.55765    -0.44803     2.78844
H     -1.22808     0.07036     2.32509
O      0.49846     0.50955     2.93212
H      1.25913    -0.02671     2.66930
O     -3.02981     0.00719     1.32755
H     -3.68216    -0.35474     1.93553
O     -3.08758    -0.91060     0.23863
H     -2.23383    -1.38940     0.32836
