 16
-606.6400676772415
O     -1.63151    -1.36709     0.60486
H     -1.64046    -0.62682    -0.02933
O     -2.20721    -0.71246     1.74484
H     -2.95493    -1.28671     1.93281
O      1.58647     0.19226     1.52591
H      1.21824     0.95296     1.05356
O      1.24344    -0.87860     0.64705
H      0.33758    -1.10882     0.91156
O      0.92147     0.34246    -2.33901
H      0.92924    -0.38636    -2.96594
O      2.15926     0.16420    -1.64411
H      1.84496    -0.27257    -0.82460
O     -1.10452     0.89733    -0.72876
H     -0.29526     0.77773    -1.26931
O     -0.62473     1.73437     0.33203
H     -1.11176     1.36164     1.07642
