 36
-1364.975816890642
O      0.65854     3.18735    -0.67272
H      0.11687     2.99662    -1.46878
O     -0.28778     3.89338     0.12819
H      0.13263     4.75410     0.21344
O     -1.12625    -1.38615     2.34835
H     -0.15079    -1.32124     2.44210
O     -1.59652    -0.34239     3.18936
H     -1.79115     0.35888     2.55198
O      1.27082    -3.82141     0.54791
H      1.75219    -3.29764     1.20273
O      1.12206    -2.84541    -0.48844
H      0.17497    -2.64756    -0.45033
O     -2.24558    -1.03734    -0.01848
H     -1.88936    -1.25792     0.87814
O     -1.07314    -0.90956    -0.80964
H     -0.50346    -0.28523    -0.30184
O     -2.66226     1.55203    -0.27662
H     -2.72538     0.57631    -0.17979
O     -2.02710     1.89820     0.95982
H     -1.47079     2.64455     0.68661
O     -0.63054     1.03942    -2.93207
H     -1.11999     0.32171    -2.50083
O     -1.18335     2.23841    -2.39849
H     -1.83152     1.94716    -1.72035
O      0.69320     0.67194     0.35274
H      0.82253     1.59762     0.05098
O      2.00545     0.12539     0.16517
H      2.01401     0.02794    -0.82127
O      1.55693    -1.08763     2.51505
H      1.89674    -0.66297     1.70026
O      2.35682    -2.26828     2.58994
H      2.17063    -2.54638     3.48994
O      1.39162    -1.37505    -2.84390
H      1.43703    -1.85000    -1.99868
O      1.78891    -0.06199    -2.45305
H      1.03889     0.46366    -2.78587
