 36
-1364.9800436481307
O     -0.68653     2.53024    -1.70235
H     -1.32399     2.01627    -1.16548
O      0.40383     2.67532    -0.79044
H      0.83977     1.80546    -0.88915
O     -2.19190     0.98599    -0.13676
H     -1.61819     0.97944     0.64335
O     -2.57924    -0.38506    -0.20914
H     -2.47383    -0.58641    -1.17211
O      2.28729    -0.61547     1.19239
H      1.86652     0.22088     1.46826
O      3.13157    -0.85013     2.31550
H      3.78425    -1.43621     1.92400
O      0.28760    -0.64389    -0.78987
H      0.77288    -1.15604    -0.11476
O      1.30377     0.20759    -1.32626
H      1.11018     0.14012    -2.28058
O     -0.23436     1.95907     1.84989
H      0.07756     2.57667     1.17299
O      1.00964     1.45037     2.33604
H      0.70855     0.97032     3.12465
O     -0.25560    -2.52394     1.18893
H      0.27924    -2.65732     1.98595
O     -1.20794    -1.60109     1.73180
H     -1.70702    -1.32794     0.93367
O      0.78048     0.51680    -3.93890
H      1.18205     1.02129    -4.65259
O     -0.55205     1.01749    -3.92354
H     -0.52391     1.64448    -3.16665
O      0.93177    -1.82943     3.52509
H      1.73266    -1.39700     3.18761
O      0.10274    -0.70481     3.85119
H     -0.61263    -0.86783     3.20886
O     -2.08193    -0.94796    -2.74760
H     -1.62789    -0.32392    -3.34149
O     -1.11402    -1.99061    -2.59814
H     -0.56330    -1.62978    -1.87962
