 40
-1516.6445440647271
O      1.73570     3.72260    -2.29245
H      2.22400     3.02448    -1.82564
O      0.47622     3.67981    -1.62238
H      0.02674     2.91925    -2.04567
O      1.78379    -0.49300    -0.32897
H      2.42366     0.23949    -0.29577
O      1.83391    -0.99442     1.00798
H      1.75646    -1.96579     0.85970
O     -0.43933    -1.79873    -0.81359
H      0.33307    -1.19796    -0.76068
O     -1.14866    -1.32970    -1.96068
H     -2.04375    -1.31521    -1.56732
O     -3.15666     0.03831     0.32733
H     -2.60324     0.56903    -0.28120
O     -3.26472    -1.19287    -0.37924
H     -3.15578    -1.84744     0.33242
O     -0.60952     1.27254    -2.11717
H     -0.76075     0.30509    -2.22009
O     -1.28307     1.50662    -0.88256
H     -0.53319     1.54977    -0.25172
O      3.31471     1.87513    -1.03809
H      4.16418     1.77054    -1.47434
O      3.71359     2.39051     0.23397
H      2.89144     2.83939     0.49306
O      1.16754     3.21711     0.87140
H      0.82182     3.51136    -0.00787
O      0.53135     1.93469     0.96542
H     -0.07614     2.05041     1.71396
O     -1.46797     0.60579     2.41522
H     -2.16013     0.36897     1.76885
O     -0.73853    -0.61209     2.50058
H      0.06928    -0.42045     1.99597
O      1.11329    -3.57695     0.80837
H      0.22400    -3.62567     1.19456
O      0.87010    -4.08063    -0.50682
H      0.29531    -3.37911    -0.86559
O     -1.42405    -3.08577     1.71721
H     -1.22605    -2.19354     2.06614
O     -2.83920    -2.99711     1.58750
H     -3.09977    -3.90310     1.77163
