 36
-1364.9824480078325
O     -2.07633     2.45348    -0.47635
H     -2.55530     1.62962    -0.26451
O     -1.06807     2.46034     0.53368
H     -0.26911     2.47180    -0.01106
O     -2.34052    -0.77737    -1.01176
H     -1.51658    -0.26730    -1.16159
O     -3.02347    -0.02891    -0.00381
H     -2.69089    -0.43022     0.82684
O      1.17324    -2.14137    -0.82508
H      0.58360    -2.90958    -0.73677
O      1.79578    -2.07306     0.45754
H      2.45839    -1.38213     0.26389
O      1.28507     0.66066    -2.26735
H      1.15460     1.62202    -2.20212
O      0.18731     0.21136    -1.45842
H      0.54397    -0.66332    -1.17520
O      2.46084     3.26868    -1.30983
H      2.62084     2.56667    -0.64485
O      1.04461     3.17646    -1.44576
H      0.79736     4.07110    -1.70223
O      0.75828     0.31617     1.69021
H      0.48277    -0.62638     1.71475
O     -0.23781     0.92161     2.52325
H     -0.64335     1.53789     1.88413
O     -0.96996    -3.78507    -0.83252
H     -1.28849    -4.69144    -0.85026
O     -1.92034    -3.16764     0.02744
H     -2.21739    -2.40467    -0.51827
O      3.17520     0.06476    -0.46895
H      2.63866     0.26765    -1.26074
O      2.88293     1.19793     0.35252
H      2.11250     0.88058     0.86767
O     -0.83682    -1.75031     2.04330
H     -1.18506    -2.39098     1.39805
O     -2.02710    -1.00211     2.33415
H     -1.60388    -0.23791     2.76407
