 24
-909.97398420705
O     -1.45177    -1.50787     0.99551
H     -1.85198    -1.64819     0.12316
O     -0.12968    -2.02747     0.79945
H      0.41008    -1.28257     1.10401
O     -2.06293    -0.79276    -1.69649
H     -1.10203    -0.83797    -1.83034
O     -2.20253     0.63483    -1.64495
H     -2.59054     0.76722    -0.76416
O      3.00990    -1.65051     0.10411
H      3.82344    -2.04773    -0.22245
O      2.99748    -0.42739    -0.63115
H      3.01380     0.22675     0.08467
O      0.37360     1.26987    -1.30821
H     -0.58048     1.35853    -1.48151
O      0.52975    -0.11179    -1.68877
H      1.43187    -0.29334    -1.36532
O      1.69861     1.47963     1.06664
H      1.06578     1.43656     0.32358
O      1.28050     0.41105     1.91408
H      0.79845     0.86980     2.61145
O     -1.53551     1.13006     1.21927
H     -1.46504     0.14816     1.19678
O     -2.91531     1.27450     0.85547
H     -3.08405     2.18511     1.11403
