 24
-909.9833277900735
O      0.32339    -0.33285     2.37056
H      0.84906     0.29592     1.84542
O      0.73486    -1.59483     1.84067
H     -0.08843    -1.83906     1.37068
O     -0.18257    -0.42579    -1.57479
H      0.74881    -0.70782    -1.42547
O     -0.03319     0.99625    -1.46668
H     -0.97034     1.27446    -1.42340
O      2.73649     1.39519     0.32595
H      2.95006     2.28617     0.03627
O      1.37242     1.52420     0.70827
H      0.88547     1.32578    -0.12903
O     -3.60400     1.02931    -1.75368
H     -4.19698     1.78322    -1.81189
O     -2.61935     1.53143    -0.85800
H     -2.69005     0.90867    -0.10918
O     -1.53910    -1.38659     0.52053
H     -1.15871    -1.00309    -0.29597
O     -2.03639    -0.22214     1.19330
H     -1.31551    -0.09382     1.84039
O      2.65618    -1.95289    -0.10921
H      2.00776    -1.84099     0.60766
O      2.33055    -0.88038    -0.98974
H      2.71025    -0.11173    -0.52387
