 24
-909.9681415828402
O     -2.96424    -0.59797    -1.24837
H     -2.91189     0.17519    -0.66991
O     -1.58773    -0.83162    -1.55616
H     -1.35239    -1.56729    -0.96983
O      0.00007    -2.11582     0.49609
H      0.43139    -1.37008     0.98267
O      1.06503    -2.49579    -0.37683
H      1.43156    -3.26478     0.07091
O      0.68397     0.88806     2.28705
H     -0.23131     0.70004     2.03913
O      1.36497    -0.21115     1.69384
H      1.91243     0.21510     1.00741
O     -2.08145     0.97290     1.90662
H     -2.38220     1.56941     2.59891
O     -2.40047     1.72667     0.73388
H     -1.51932     1.81121     0.31985
O      2.99398     0.26010    -0.39274
H      3.89602    -0.03420    -0.55084
O      2.26569    -0.35561    -1.45028
H      1.82458    -1.10038    -0.99278
O      0.36672     1.92350    -1.82188
H      1.22851     1.50095    -1.90469
O     -0.13729     1.20977    -0.69052
H     -0.57891     0.43994    -1.11653
