 36
-1364.9771649284646
O      0.37226     2.10367    -2.62334
H      0.49329     2.78634    -1.93543
O     -1.02159     2.21512    -2.89084
H     -1.38703     1.60233    -2.23359
O     -1.92510     0.71411    -0.72554
H     -2.02475    -0.15959    -0.29438
O     -2.01276     1.61304     0.38076
H     -1.12510     2.02115     0.39984
O     -1.10095    -2.67616    -0.57647
H     -0.92883    -2.09616    -1.33182
O     -1.71470    -1.76886     0.34222
H     -1.02481    -1.65480     1.02658
O      0.54407    -0.95084    -2.07244
H      1.25049    -1.61515    -2.06932
O      0.54748    -0.47044    -3.41756
H      0.52870     0.49187    -3.23699
O      1.75119     0.67959    -0.41812
H      1.20186     0.09278    -0.99476
O      2.26930    -0.20459     0.58013
H      1.53036    -0.27042     1.22370
O     -2.37003     0.22151     2.62506
H     -2.28891     0.81287     1.84819
O     -1.32977     0.73976     3.45756
H     -1.78350     0.83995     4.29939
O      0.61653     3.70856    -0.48050
H      1.20645     4.37650    -0.11836
O      0.52089     2.76284     0.58270
H      1.10960     2.04735     0.23612
O      1.01165    -1.84611     2.70268
H      1.19326    -2.45439     1.95616
O      0.18653    -0.91064     2.01360
H     -0.26860    -0.40312     2.72539
O      2.16424    -2.65501    -0.49206
H      2.37249    -1.82428    -0.02381
O      1.30352    -3.28947     0.45617
H      0.43488    -3.21620     0.01790
