 32
-1213.30191997203
O      0.06924    -2.02235     1.84764
H      0.05092    -2.24061     0.90232
O     -1.32021    -1.77171     2.10121
H     -1.33149    -0.80619     2.21372
O     -0.69959    -0.97193    -3.44258
H     -1.12307    -1.58336    -2.81924
O      0.58262    -1.58475    -3.58302
H      0.59066    -1.81700    -4.51784
O     -2.44269    -2.40868    -0.25986
H     -2.28297    -2.37366     0.69864
O     -1.16717    -1.96062    -0.72441
H     -1.27854    -0.98398    -0.67911
O     -1.65248     0.62950    -0.93568
H     -1.71146     1.16032    -0.11743
O     -0.64234     1.33059    -1.67256
H     -0.37836     0.63375    -2.29523
O      0.70060     3.08376     0.29535
H      0.46875     2.49054    -0.43534
O      2.11692     2.90723     0.33532
H      2.43399     3.80647     0.20661
O      2.05679     0.03402    -0.93831
H      1.74174     0.31065    -0.05748
O      1.94408    -1.39311    -0.82093
H      1.51252    -1.59044    -1.66011
O     -1.76349     1.79499     1.46789
H     -2.33447     2.33957     2.01771
O     -1.18184     0.92640     2.43740
H     -0.23023     1.07612     2.27715
O      2.34980     1.10582     2.35535
H      2.53468     1.80007     1.70484
O      1.31186     0.46094     1.61206
H      1.36030    -0.46363     1.90772
