 32
-1213.3057766640677
O      1.25929    -0.84463     2.37181
H      1.63964    -1.20396     1.55536
O      1.79141     0.47919     2.40740
H      1.07462     0.99504     1.99311
O      1.57824    -1.59998    -1.70034
H      0.68911    -1.65986    -2.07675
O      1.33743    -0.86621    -0.50385
H      1.74805     0.00960    -0.71544
O     -1.45654    -2.16731    -2.40208
H     -1.44660    -2.19260    -1.42316
O     -2.55622    -1.27585    -2.59348
H     -2.88629    -1.56546    -3.44864
O     -1.43408     1.16209    -0.64167
H     -1.73248     0.36748    -0.16626
O     -0.83561     0.61307    -1.82232
H     -1.55406     0.05731    -2.18320
O      2.28469     1.53621    -1.18248
H      1.89281     2.26686    -0.66594
O      1.85103     1.80623    -2.51229
H      1.02091     1.30845    -2.53523
O     -1.25600    -0.69690     3.31991
H     -0.29503    -0.73559     3.12919
O     -1.66908     0.29129     2.36860
H     -1.80682     1.06928     2.91930
O     -0.89608    -2.69291     1.07662
H     -1.26738    -2.27854     1.86720
O     -1.06621    -1.64259     0.13277
H     -0.14132    -1.29485     0.07050
O      1.00782     3.19238     0.55219
H      1.49502     3.52097     1.31191
O      0.17655     2.21136     1.16581
H     -0.37027     1.90261     0.40827
