 32
-1213.30228011517
O      2.34604    -0.58829     3.41942
H      2.65338    -1.39933     3.83634
O      0.94574    -0.84747     3.25646
H      0.91498    -1.32977     2.39687
O      0.69855    -0.84879    -2.64441
H      0.73042    -1.25819    -3.51346
O     -0.58145    -1.25690    -2.17926
H     -1.12634    -0.44195    -2.30556
O     -2.87659    -1.01235     0.90406
H     -1.93187    -1.24634     0.97534
O     -3.13699    -1.45290    -0.42975
H     -3.90708    -2.01491    -0.29661
O      1.45364     1.68778    -2.04543
H      1.11196     0.80981    -2.28209
O      0.27902     2.37328    -1.62000
H      0.20822     2.10356    -0.68290
O      2.17786     0.65967     0.43676
H      2.44060     1.25072    -0.28534
O      3.40994     0.06909     0.86353
H      3.18807    -0.03696     1.79931
O     -1.95935     1.02451    -2.36111
H     -1.28298     1.71738    -2.20646
O     -2.72568     1.08668    -1.14761
H     -2.98735     0.15498    -1.02401
O     -0.50934     1.30582     0.67894
H     -1.46552     1.26077     0.52125
O     -0.40087     1.72198     2.03824
H      0.10520     0.98392     2.40478
O      1.08757    -1.74864     0.74542
H      1.37909    -0.86348     0.43117
O     -0.31414    -1.77007     0.49169
H     -0.35618    -1.74516    -0.48399
