 32
-1213.3097168872644
O      2.69958    -0.92356     1.10339
H      2.39740    -1.24417     0.22120
O      2.24450    -1.99056     1.92978
H      3.01760    -2.13925     2.47878
O      1.66882    -1.44524    -1.27381
H      0.80317    -1.55111    -1.71794
O      2.38181    -0.57103    -2.14952
H      1.82854     0.23365    -2.14943
O     -3.48360    -0.64524     0.00714
H     -4.35383    -0.81235     0.38511
O     -2.92359    -1.95911    -0.04082
H     -2.22216    -1.88996     0.62194
O      0.58572     2.67817    -1.11295
H      1.13572     2.34183    -0.37853
O      0.73017     1.64431    -2.08804
H     -0.09851     1.13792    -1.96195
O      1.75207     1.61386     1.06492
H      2.18410     0.73667     1.08268
O      0.78982     1.49584     2.11341
H      0.04163     1.99234     1.74548
O     -0.93782    -1.44107    -2.01630
H     -1.81744    -1.80183    -1.82360
O     -1.03166    -0.16759    -1.37545
H     -0.68928    -0.37601    -0.46931
O     -0.13132    -0.73167     1.03796
H      0.12311    -0.01515     1.66848
O     -0.45342    -1.82640     1.89404
H      0.44613    -2.17368     1.99171
O     -1.97245     2.75432    -0.26392
H     -1.06747     2.79415    -0.63020
O     -1.80350     1.80107     0.79387
H     -2.37756     1.07894     0.49225
