 32
-1213.30787964276
O      0.78882     0.95897     0.87054
H      0.90617     0.90106     1.83523
O      1.51045     2.14706     0.52319
H      1.12405     2.28670    -0.36340
O     -2.90258    -2.44657    -0.62158
H     -3.82839    -2.53098    -0.86493
O     -2.39651    -1.61293    -1.65920
H     -1.43539    -1.74594    -1.51782
O      1.17991     0.66750    -2.42045
H      2.09976     0.82705    -2.13589
O      0.52115     1.85317    -1.95911
H     -0.38664     1.52096    -1.79624
O     -1.87672     1.03132    -1.13970
H     -2.21845     0.12878    -1.27091
O     -1.77635     1.11335     0.28192
H     -0.81873     0.97679     0.42720
O      3.56945     0.92100    -1.10023
H      3.17182     1.20958    -0.26419
O      4.35538     2.05864    -1.45423
H      5.24013     1.68117    -1.43307
O      0.13262    -1.39408    -1.09118
H      0.62639    -0.65597    -1.51783
O      1.07211    -1.97133    -0.19038
H      0.73199    -1.66196     0.65981
O     -0.17343    -0.22204     3.21977
H     -0.91321    -0.67747     2.75959
O      0.92974    -1.04264     2.82033
H      1.11391    -1.53464     3.62871
O     -2.99341    -0.56425     1.98875
H     -2.69186     0.20262     1.46811
O     -1.93832    -1.47551     1.68700
H     -2.23842    -1.86117     0.83898
