 28
-1061.6485842500188
O      0.90048    -1.30852    -2.69482
H      0.10546    -0.95076    -2.26838
O      1.65036    -0.10425    -2.92367
H      2.50866    -0.38165    -2.56987
O     -0.42172    -0.87185     2.20791
H     -1.40473    -0.78459     2.22677
O     -0.27671    -1.50598     0.93042
H      0.68615    -1.62856     0.85262
O      0.27020     1.72684     1.84380
H      0.02508     0.82168     2.11103
O     -0.84397     2.08045     1.01165
H      1.64579     1.54480     0.82591
O     -2.51715     0.11682    -0.99783
H     -3.02236    -0.28936    -1.70637
O     -1.22899    -0.41835    -1.26255
H     -0.97233    -0.77664    -0.38409
O     -2.96770     0.94374     2.26706
H     -2.22494     1.40751     1.83410
O     -2.93248    -0.33647     1.63551
H     -2.98225    -0.11257     0.69161
O      0.94947     1.57744    -0.89894
H      1.20325     1.05949    -1.68603
O      2.07499     1.36208    -0.03412
H     -0.45529     1.95395     0.12883
O      2.24412    -1.95058    -0.29920
H      1.82711    -2.21483    -1.13044
O      3.17950    -0.97972    -0.77415
H      2.84407    -0.16484    -0.35649
