 28
-1061.645848668876
O      0.29711    -0.87518    -2.86468
H      0.68879    -1.22497    -3.66893
O      0.63044    -1.90200    -1.92700
H     -0.24902    -2.05768    -1.52308
O      0.49030    -0.34181     1.37500
H      0.32611     0.07654     2.24121
O      1.63153    -1.17210     1.60827
H      2.28269    -0.69540     1.05149
O     -0.82702     1.05684     3.40044
H     -0.53818     1.61027     4.13111
O     -0.78941     1.99210     2.32109
H      0.70695     0.65128    -2.13959
O     -1.76244    -1.51050     0.59725
H     -0.83962    -1.23207     0.76577
O     -1.80551    -1.66814    -0.82350
H     -2.15779    -0.79404    -1.08817
O     -2.82733     0.91267     0.60853
H     -2.63504    -0.02040     0.83291
O     -2.47353     0.88822    -0.77836
H     -1.59846     1.31754    -0.76716
O      0.07626     1.74067    -0.71006
H      0.40785     1.30400     0.09324
O      1.09245     1.40841    -1.65696
H     -1.62577     1.78499     1.87987
O      3.35444    -0.91320    -1.10911
H      2.50765    -1.37456    -1.18483
O      3.01459     0.16927    -0.25074
H      2.48278     0.74839    -0.83249
