 32
-1213.306043500735
O      1.46773    -2.31095     2.23865
H      1.74325    -3.20486     2.45641
O      0.32593    -2.55935     1.42448
H     -0.24657    -1.81564     1.70746
O      2.02108    -0.16800    -2.64181
H      1.54929    -0.95444    -2.29619
O      3.28473    -0.24662    -1.98350
H      3.04166     0.01174    -1.08216
O      0.57633    -1.90805    -1.22637
H      0.55556    -2.23288    -0.30500
O     -0.44670    -0.90755    -1.19818
H      0.00642    -0.16647    -0.75901
O      1.00528     2.14847    -1.72611
H      1.31949     1.30014    -2.10510
O      0.57992     1.71254    -0.42924
H     -0.34722     2.01744    -0.40352
O      1.96766     0.99797     1.70140
H      1.60989     1.51925     0.96065
O      2.43827    -0.13870     0.96766
H      2.16735    -0.87675     1.53970
O     -3.91110    -0.69101    -0.85548
H     -4.48505    -1.06260    -1.53302
O     -2.98060     0.03719    -1.64646
H     -2.16051    -0.47828    -1.52580
O     -2.52413     1.72769     0.94291
H     -2.67231     2.54380     1.43139
O     -2.08363     2.21930    -0.32156
H     -2.57053     1.61834    -0.91616
O     -1.03487    -0.31179     1.84281
H     -1.64221     0.36803     1.49479
O     -0.40810     0.40071     2.91536
H      0.46055     0.61474     2.52032
