 16
-606.6382608611576
O     -2.42491     0.46088     1.21362
H     -2.70635     1.35784     1.41444
O     -1.23384     0.72417     0.46157
H     -0.54301     0.34054     1.04872
O      0.79275    -0.24954     1.83952
H      1.03286    -0.30070     2.77072
O      1.62147     0.83071     1.38416
H      1.70984     0.59208     0.43923
O      0.81352     1.62348    -1.60121
H      0.09763     1.64582    -0.95004
O      1.44074     0.38393    -1.27138
H      0.77346    -0.27114    -1.55191
O     -0.78182    -1.13970    -1.64440
H     -1.34238    -0.70143    -0.99048
O     -0.13268    -2.09896    -0.80286
H      0.04474    -2.78767    -1.44763
