 28
-1061.6459409463685
O      1.54146    -2.48855    -0.91437
H      1.53328    -2.36124     0.05407
O      1.49613    -1.12927    -1.34483
H      2.36829    -0.77824    -1.10986
O      0.30181    -1.20681     1.99343
H     -0.25645    -1.78578     1.43540
O      1.61708    -1.56026     1.57353
H      2.06528    -0.69830     1.52899
O      0.49730     1.88280    -0.46965
H     -0.07654     1.77117     0.31964
O     -0.13602     0.98090    -1.38519
H     -0.51394    -2.84743    -1.27155
O     -2.87264     3.10729    -1.19617
H     -3.60087     3.22506    -1.81116
O     -2.72657     1.69210    -1.22145
H     -1.80441     1.59450    -1.52998
O     -2.19727     0.45145     1.14656
H     -2.48574     1.03800     0.42309
O     -1.00239     1.11301     1.58551
H     -0.50521     0.34424     1.92039
O     -1.42211    -2.20000     0.22737
H     -1.87166    -1.34758     0.13916
O     -1.45557    -2.70002    -1.10942
H      0.36193     0.14573    -1.25241
O      2.98828     0.99121    -0.19048
H      2.14910     1.48022    -0.33758
O      2.91340     0.78864     1.21896
H      3.76878     1.11840     1.50967
