 20
-758.3091792122552
O      1.71680    -2.44005     0.09841
H      2.16179    -3.26199     0.32299
O      0.38050    -2.89440    -0.15334
H     -0.07605    -2.49006     0.60088
O     -0.46196    -0.86602     1.56768
H     -0.92313    -0.03906     1.32001
O      0.81071    -0.37655     2.01043
H      1.39768    -0.92529     1.47200
O      1.29567     1.49158    -0.14187
H      1.11680     1.20660     0.76696
O      0.92364     2.87986    -0.11593
H     -0.02096     2.81051    -0.31036
O      0.01544     0.05789    -2.50305
H      0.58215     0.60769    -1.93451
O     -0.82027    -0.57419    -1.53502
H     -0.36416    -1.41262    -1.34952
O     -1.67502     1.66869    -0.41963
H     -1.41215     0.80802    -0.81635
O     -1.90024     1.28583     0.93563
H     -2.85797     1.35097     1.01256
