 24
-909.9744922293733
O     -1.60130    -0.98994     1.55466
H     -0.96454    -0.74921     2.25291
O     -1.79812     0.28996     0.93240
H     -2.10124     0.02569     0.03743
O      0.76244     0.71277    -3.02310
H      0.46313    -0.19487    -2.87030
O     -0.38778     1.44333    -2.59399
H     -0.06899     1.83476    -1.76405
O      1.98834    -0.54248    -0.41170
H      1.61663     0.25819     0.00668
O      1.14914    -1.53551     0.19823
H      1.57615    -2.34956    -0.08430
O     -0.90959    -1.30974    -1.87289
H     -0.48068    -1.30873    -1.00485
O     -2.02584    -0.42361    -1.66804
H     -1.68334     0.35762    -2.14998
O      1.59337    -0.79637     2.74506
H      1.30320    -1.11989     1.87547
O      0.33746    -0.46853     3.33568
H      0.38807    -0.94780     4.16866
O      0.26772     2.44081    -0.18372
H      0.52654     3.24867     0.26748
O      0.57301     1.44843     0.78880
H     -0.32843     1.07408     0.95360
