 16
-606.6366876971233
O     -1.67287    -0.47452     0.99211
H     -1.98956    -0.69865     1.87126
O     -1.64015     0.95950     1.06063
H     -0.68669     1.12975     0.92669
O      1.05227     1.28987     0.61282
H      1.36659     0.46794     0.17904
O      1.78390     1.28007     1.83840
H      2.31801     2.07280     1.73430
O      1.38910    -1.03207    -0.74759
H      0.74563    -0.98377    -1.47355
O      0.84760    -2.07574     0.07947
H      0.15386    -1.60136     0.55775
O     -1.22148    -0.62588    -1.85732
H     -1.66614    -0.51056    -1.00650
O     -0.59578     0.66163    -1.95983
H     -0.75551     0.85460    -2.88902
