 32
-1213.3076678565442
O      0.01747    -4.49364     1.11652
H      0.61106    -4.95664     0.51671
O      0.89499    -3.90953     2.07293
H      0.94495    -2.99687     1.74480
O     -1.71299    -1.65095    -1.45992
H     -1.84902    -2.07242    -0.59474
O     -0.28187    -1.58064    -1.50915
H     -0.15679    -0.71321    -1.92855
O      2.01162     2.29092     0.19462
H      1.91130     2.44782    -0.75797
O      0.84242     2.97397     0.67995
H      0.34440     2.25401     1.12138
O     -1.11086     2.04246    -2.54666
H     -0.60550     2.86370    -2.60344
O     -0.29553     1.28468    -1.65751
H     -0.85436     1.19660    -0.86396
O      1.75855     3.91567    -2.14241
H      2.41432     4.61171    -2.02046
O      0.53868     4.57508    -1.78439
H      0.40815     4.22744    -0.88568
O      2.19072    -0.76970     0.33741
H      2.04508     0.18750     0.28268
O      0.91750    -1.21438     0.79405
H      0.46720    -1.44306    -0.06348
O     -0.41832     0.83694     1.80072
H      0.15023     0.05739     1.61673
O     -1.54518     0.54964     0.95760
H     -1.79530    -0.33538     1.27041
O     -2.04968    -2.83610     0.97701
H     -1.31862    -3.48955     1.04181
O     -1.69287    -1.94172     2.02412
H     -2.29383    -2.19613     2.73205
