 40
-1516.6383630162134
O      0.83707     0.74130    -2.26822
H      0.18094     0.66699    -1.53757
O      1.86664     1.53984    -1.67622
H      2.20660     0.90917    -1.00830
O      2.00646    -2.29972    -1.49034
H      1.37049    -3.03108    -1.47314
O      1.76478    -1.72161    -2.77783
H      1.58164    -0.78426    -2.55274
O     -1.27602     3.73690     3.56230
H     -2.04687     3.83946     4.12821
O     -1.80900     2.91184     2.52149
H     -1.29443     2.09154     2.63921
O     -0.63683     3.37405    -0.14936
H     -1.10905     3.47811     0.68877
O      0.64918     2.94983     0.32583
H      1.07931     2.62258    -0.48977
O     -1.07400    -1.82545    -2.24844
H     -0.40299    -1.71850    -2.94472
O     -2.29473    -1.38854    -2.85096
H     -2.37076    -0.50470    -2.46812
O      1.93362    -0.27172     0.20802
H      2.05062    -1.14297    -0.23673
O      3.10026    -0.11836     1.01165
H      2.69187     0.20963     1.82201
O      0.06151     0.94435     2.34922
H      0.25144     1.14377     1.41218
O      1.18699     1.45774     3.04275
H      1.09323     2.41845     2.94561
O     -1.32511    -3.88653    -0.53939
H     -1.28474    -3.26883    -1.29434
O      0.06870    -4.13686    -0.31874
H      0.21769    -3.63120     0.49158
O     -0.37580    -1.86235     1.51150
H     -0.20263    -1.04852     2.00782
O     -1.70849    -1.61440     1.03236
H     -1.91546    -2.47925     0.63585
O     -1.95184     1.22865    -1.02471
H     -1.58472     2.12942    -0.98710
O     -0.89778     0.56748    -0.31225
H     -1.33198    -0.24183     0.05549
