 24
-909.9791461607251
O     -2.65173    -1.66268     0.23701
H     -3.48444    -2.00393    -0.10038
O     -2.81108    -0.26248     0.01548
H     -2.35408     0.10292     0.79855
O      0.68529    -2.04923    -1.22227
H      1.49338    -1.49655    -1.21551
O     -0.14134    -1.17538    -0.45616
H     -1.01906    -1.60570    -0.38969
O      2.56089    -0.13947    -0.83796
H      2.55282    -0.02943     0.13519
O      2.63884     1.21894    -1.27018
H      1.79898     1.32142    -1.74189
O     -0.23757     0.83276    -2.18305
H     -0.10549    -0.01906    -1.72743
O     -1.06681     1.53982    -1.24750
H     -1.88078     1.01386    -1.24538
O      1.87539     0.25962     1.73860
H      1.31688     1.05738     1.66235
O      0.86517    -0.73567     1.98018
H      0.65304    -1.01977     1.07186
O     -1.26143     0.86010     1.91652
H     -0.65461     0.18853     2.28366
O     -0.29749     1.73595     1.31482
H     -0.50029     1.64380     0.36333
