 32
-1213.3086823209708
O      0.51745    -3.17926     0.62969
H     -0.05239    -2.81276     1.33868
O      1.74737    -2.50444     0.89996
H      2.31651    -3.23349     1.16465
O     -1.44726    -0.64651    -0.30518
H     -0.54505    -0.81721    -0.65226
O     -2.25241    -1.37756    -1.22897
H     -2.35951    -0.72452    -1.93134
O      1.88236     0.09016    -1.19873
H      1.61146     0.49922    -2.04664
O      1.07603    -1.09442    -1.27269
H      1.50589    -1.68344    -0.62246
O      0.78781     3.06291    -1.56309
H      0.40583     2.81419    -0.69763
O     -0.39778     3.12899    -2.35791
H     -0.33322     4.01467    -2.72692
O     -0.08645     1.94998     0.69461
H     -0.54136     1.87314     1.55691
O      1.18319     1.38701     1.05815
H      1.44489     0.94818     0.22087
O      0.56754     0.82606    -3.37253
H      0.08431     1.64558    -3.16146
O     -0.48901    -0.14197    -3.45154
H     -0.05022    -0.87194    -2.99873
O      0.38078     0.23992     3.28769
H      0.89258     0.52728     2.50608
O     -0.77251     1.08689     3.12196
H     -1.43301     0.39344     2.92576
O     -0.84277    -2.03153     2.65465
H     -0.21941    -1.38602     3.04375
O     -1.89900    -1.14013     2.27629
H     -1.75299    -1.04021     1.31181
