 36
-1364.9761445106515
O      0.27949     2.12253     0.44049
H      0.11349     1.46308     1.14428
O     -0.46928     3.23626     0.90311
H     -1.13903     3.27670     0.20851
O     -2.57889     0.03751     0.40066
H     -2.28144    -0.88903     0.28023
O     -3.64973    -0.07287     1.33140
H     -4.34502     0.38245     0.84692
O      2.29987    -0.92643     1.72268
H      2.53279    -0.23820     1.06699
O      2.42432    -2.13462     0.98116
H      1.49685    -2.30353     0.71429
O      3.24904    -1.53142    -1.51983
H      3.19498    -1.87001    -0.60233
O      2.24803    -2.32672    -2.15919
H      1.56658    -1.67170    -2.36564
O      2.39985     1.00931    -1.29310
H      2.77990     0.13289    -1.51208
O      2.79127     1.11952     0.08601
H      2.30112     1.91372     0.33992
O     -0.12305    -0.96700     2.72812
H      0.83208    -0.99921     2.49275
O     -0.41644     0.37532     2.31923
H     -1.35927     0.32708     2.09630
O     -0.18717    -0.05365    -1.43832
H      0.37020     0.70121    -1.15074
O     -0.45821     0.23881    -2.80654
H     -1.25589     0.77503    -2.70121
O     -2.21377     2.09756    -1.27442
H     -2.33212     1.34738    -0.66076
O     -3.57896     2.50689    -1.42673
H     -3.48688     3.17460    -2.11301
O     -0.03651    -2.27849    -0.03253
H     -0.10183    -1.44363    -0.55224
O     -1.24927    -2.30352     0.72358
H     -0.90152    -2.03096     1.59714
