 28
-1061.6362621729795
O     -1.88406    -1.18134    -2.52867
H     -2.31764    -1.12056    -1.66467
O     -0.53120    -0.91845    -2.16715
H     -0.48524     0.05456    -2.15505
O     -1.46928     2.42842     2.57635
H     -2.18872     1.86299     2.25941
O     -0.40627     2.01937     1.70981
H      0.03217     1.30548     2.21294
O      0.74927    -0.19602     2.72101
H      0.95071    -0.68572     1.88911
O     -0.12754    -1.10741     3.38796
H      3.42731    -2.42132    -2.80820
O      0.06689     1.68041    -0.99113
H      0.86302     1.24037    -0.65700
O      0.40091     3.06150    -0.85841
H      0.04063     3.24199     0.02215
O     -2.52471    -0.15956     1.54070
H     -1.94496    -0.53643     2.21613
O     -1.70193    -0.22199     0.37899
H     -1.29921     0.66873     0.33921
O      2.02408    -1.31228    -3.37413
H      1.08801    -1.48519    -3.21478
O      2.58234    -2.20328    -2.40669
H      0.30666    -1.18441     4.23988
O      1.88585    -0.48680    -0.43619
H      2.19486    -1.11789    -1.11782
O      0.99980    -1.32404     0.32007
H      0.15248    -1.18718    -0.14247
