 40
-1516.6431411234503
O      2.13625     0.60967    -0.46720
H      2.13757     1.04357    -1.34369
O      0.73873     0.66774    -0.14160
H      0.67252    -0.12938     0.41114
O     -1.10434    -2.23861     2.50414
H     -0.68645    -2.88094     1.90874
O     -0.01795    -1.86791     3.35856
H     -0.19533    -0.91746     3.49562
O     -0.85916     2.48569     1.03370
H     -0.28124     1.89109     0.50676
O     -2.16595     2.24125     0.52678
H     -2.22425     1.26792     0.60090
O      0.04158     0.83136     3.43446
H      0.35467     1.36974     4.16726
O     -1.32047     1.24359     3.31074
H     -1.24793     1.85779     2.54354
O     -1.98652    -0.38487     0.78602
H     -1.79571    -0.93293     1.57420
O     -2.01622    -1.38968    -0.23611
H     -1.59545    -0.92939    -0.99763
O     -0.81218    -0.40546    -2.36047
H     -0.71540     0.57402    -2.39127
O      0.54514    -0.85046    -2.47345
H      0.51331    -1.70012    -1.99267
O     -2.04771     2.68099    -2.17575
H     -2.10913     2.74471    -1.20568
O     -0.68899     2.24605    -2.30703
H     -0.29639     2.90587    -2.88974
O      3.02084    -0.96852     1.55417
H      2.95240    -0.27912     0.87851
O      1.73683    -1.56730     1.33674
H      1.40061    -1.71009     2.24219
O     -0.42891    -3.54337    -0.07398
H     -1.14001    -2.91172    -0.28939
O      0.63353    -3.04096    -0.88647
H      1.26462    -2.74520    -0.21187
O      2.43987     1.75313    -2.88775
H      3.31549     1.76266    -3.28638
O      1.65665     1.13761    -3.90856
H      1.35367     0.33643    -3.43514
