 16
-606.6365788089474
O     -0.94022     0.87559     0.87429
H     -1.01882     1.13969    -0.06974
O     -0.41204     2.06643     1.45420
H     -1.03053     2.18930     2.17779
O      0.64830    -0.59483     2.49951
H      0.11263    -0.00849     1.93203
O      0.79628    -1.73688     1.64785
H      0.07926    -2.31270     1.93395
O     -0.57483     0.71271    -2.55781
H     -0.07298     0.14504    -1.94337
O     -1.08336     1.70363    -1.65579
H     -0.59077     2.48962    -1.91456
O      0.27471    -2.00445    -1.51719
H      0.91849    -2.14156    -2.21587
O      0.84452    -0.86738    -0.87052
H      0.87455    -1.17089     0.06524
