 24
-909.9769758573151
O     -2.90111     0.03187     1.18232
H     -2.48173     0.63669     0.53679
O     -2.86915    -1.19338     0.43947
H     -3.78516    -1.26911     0.15387
O      1.07581    -0.63489    -2.45286
H      0.13200    -0.51374    -2.22954
O      1.42834    -1.76229    -1.65017
H      1.22884    -1.44611    -0.75207
O      3.07530     0.94033    -0.67989
H      3.64221     0.29863    -1.12198
O      2.38796     1.58605    -1.75682
H      1.89064     0.83100    -2.13625
O     -1.35139     1.01160    -0.76162
H     -0.47402     0.93743    -0.33392
O     -1.40894    -0.19140    -1.54015
H     -1.72098    -0.82361    -0.87094
O     -0.70723    -0.26481     2.87257
H     -1.59949    -0.23593     2.49075
O     -0.47447     1.11883     3.16621
H      0.26917     1.29539     2.57771
O      0.85912     0.59144     0.66298
H      1.71677     0.71965     0.19737
O      0.93348    -0.82992     0.89953
H      0.36527    -0.86984     1.69907
