 24
-909.9817490768949
O      0.49241    -1.53575    -1.47868
H      0.68435    -1.88006    -0.58215
O     -0.93726    -1.45956    -1.53449
H     -1.21353    -1.53476    -0.60565
O     -1.16405    -1.58469     2.35415
H     -1.91481    -2.08070     2.69160
O     -1.65907    -1.17196     1.08626
H     -1.50952    -0.19693     1.13686
O      2.19740     1.00923    -0.65814
H      1.65695     1.60108    -0.11566
O      1.45187     0.95235    -1.87629
H      1.14767     0.02106    -1.87114
O     -1.79433     1.46215    -1.87308
H     -1.41439     0.57974    -1.75930
O     -0.78146     2.32759    -1.37716
H      0.04183     1.96945    -1.77493
O      1.82953    -0.91025     1.51782
H      2.18507    -0.56224     0.68658
O      1.14456    -2.08181     1.06908
H      0.39475    -2.09767     1.68561
O     -1.04341     1.41159     1.09907
H     -1.08155     1.87813     0.22768
O      0.32509     1.62339     1.47954
H      0.56969     0.75812     1.83688
