 24
-909.9818589205526
O     -2.02117    -0.04442     0.91464
H     -2.44296    -0.03631     0.03095
O     -1.22838    -1.23112     0.81248
H     -0.76743    -1.22314     1.67407
O      0.46239    -1.16316    -1.25861
H     -0.18478    -1.19364    -0.52742
O     -0.04928    -0.11950    -2.08979
H      0.20764     0.66657    -1.56891
O      3.02413    -0.35794    -1.17634
H      2.09892    -0.66279    -1.26925
O      2.97243     0.35702     0.05887
H      2.81013    -0.33303     0.71752
O     -2.86461     1.38598    -1.91583
H     -3.59663     1.38873    -2.53973
O     -2.69573    -0.01709    -1.70291
H     -1.78932    -0.15327    -2.05441
O      1.47180    -0.55883     2.39010
H      1.05559     0.25698     2.04458
O      0.31487    -1.15749     2.97788
H      0.70817    -1.74773     3.62814
O      0.68465     1.62865    -0.19854
H      1.60761     1.30383    -0.10014
O      0.19682     1.38622     1.12612
H     -0.71351     1.05565     0.96866
