 24
-909.9840693541984
O     -0.64331    -2.08801    -1.68590
H      0.30092    -2.30257    -1.70523
O     -0.97016    -2.50304    -0.35292
H     -1.67150    -1.87419    -0.11217
O     -1.31524    -0.13423     1.31748
H     -1.42280     0.79039     1.61583
O     -2.44209    -0.32844     0.46605
H     -2.20756     0.26328    -0.27597
O      2.08861    -1.50972    -1.03637
H      1.88085    -1.58196    -0.08730
O      2.33541    -0.10353    -1.13016
H      1.49521     0.21451    -1.50171
O     -0.19142     0.52255    -1.88701
H     -0.54355    -0.39326    -1.86111
O     -1.27028     1.27460    -1.33152
H     -0.79270     1.88731    -0.75404
O      1.81794     0.55787     1.37389
H      2.32376     0.51053     0.53624
O      1.26949    -0.76407     1.37872
H      0.31297    -0.59156     1.27076
O     -0.95123     2.42907     1.85911
H     -0.59403     3.00182     2.54415
O      0.04054     2.48207     0.84120
H      0.67702     1.78346     1.11996
