 24
-909.976027357882
O     -1.82813    -1.62383     0.12671
H     -2.41757    -0.99549    -0.31014
O     -1.81662    -1.06875     1.44705
H     -0.90033    -1.27569     1.70073
O      0.51816    -1.29201    -1.09669
H     -0.27441    -1.48570    -0.55698
O     -0.00937    -0.32352    -2.01934
H      0.39359     0.47541    -1.63295
O      3.10317    -0.55614    -0.63247
H      2.16756    -0.80855    -0.75747
O      3.01245     0.54537     0.27636
H      2.86779     0.10437     1.12589
O     -2.93507     2.08553    -1.62593
H     -3.83446     1.81538    -1.83248
O     -2.41069     0.87978    -1.07611
H     -1.78721     0.58875    -1.76322
O      1.24502    -0.17262     2.35095
H      0.66537     0.35480     1.76527
O      0.73188    -1.48321     2.12546
H      0.91966    -1.90389     2.97098
O      0.75472     1.70938    -0.45478
H      1.64118     1.41040    -0.14306
O     -0.06317     1.44601     0.69457
H     -0.93692     1.35898     0.28423
