 28
-1061.6451419063385
O     -1.18986     0.46753    -2.38045
H     -1.38503     1.39692    -2.16967
O      0.02848     0.32146    -1.64264
H      0.04870    -0.65735    -1.62286
O      1.82291     2.28789     1.98368
H      0.97132     2.45128     1.55237
O      1.78374     0.87560     2.17457
H      2.30328     0.54263     1.41523
O     -0.28690    -1.30621     1.36580
H     -0.98586    -1.33327     0.68427
O     -0.66278    -0.08844     2.03038
H     -0.52690    -3.02623    -1.79306
O     -0.36884     2.35793     0.02289
H      0.01547     1.59657    -0.45187
O     -1.56225     2.55489    -0.75046
H     -2.20501     2.05336    -0.22144
O     -2.79149     0.47886     0.52220
H     -2.18821     0.43627     1.28493
O     -2.31653    -0.67139    -0.19414
H     -2.07526    -0.28960    -1.05392
O      1.33953    -2.73221    -1.92992
H      1.77936    -2.63638    -1.06724
O      0.03431    -2.27672    -1.56514
H      0.22785     0.29950     2.18951
O      2.16615    -1.60721     0.37141
H      1.31175    -1.43628     0.82508
O      2.57076    -0.31553    -0.07592
H      2.16551    -0.23549    -0.95128
