 32
-1213.3018824877438
O      1.77409    -1.32446     0.13799
H      2.67929    -0.94817     0.12075
O      1.64286    -1.81797     1.47762
H      1.19724    -1.05048     1.86696
O      1.02813    -3.06804    -1.68557
H      1.36135    -2.51775    -0.94240
O     -0.02235    -2.18460    -2.10282
H     -0.46249    -2.68266    -2.79943
O     -1.46055    -1.42689     0.10813
H     -0.90747    -1.75187    -0.62317
O     -2.18194    -0.35487    -0.52861
H     -2.78434    -0.10669     0.20745
O     -1.72490     2.53569    -0.28247
H     -1.50753     1.65581    -0.64208
O     -0.63004     2.75775     0.60759
H     -0.06234     3.35250     0.10407
O      1.36246     0.16801    -2.28454
H      0.92585    -0.69956    -2.37963
O      0.45873     0.86558    -1.42590
H      0.59857     0.40595    -0.57605
O      4.04575    -0.14984    -0.43286
H      4.88679     0.16686    -0.09256
O      3.33566     1.07774    -0.64781
H      2.74742     0.81648    -1.38080
O     -0.78337    -0.20574     2.34317
H     -1.03801    -0.84884     1.65351
O      0.26153     0.46086     1.63261
H     -0.16525     1.30154     1.36999
O     -3.46401     0.51302     1.60844
H     -2.72499     0.52445     2.23736
O     -3.79811     1.89684     1.46334
H     -3.18201     2.17848     0.77014
