 40
-1516.6369318514742
O      3.66494     0.43089    -0.86715
H      4.59552     0.67036    -0.88643
O      3.03095     1.70901    -0.93745
H      2.44950     1.65808    -0.14869
O     -1.67967    -0.96823    -1.38806
H     -2.17151    -0.28800    -1.88717
O     -2.25483    -0.83854    -0.08306
H     -1.92479     0.03060     0.22335
O     -1.43317     1.65534     0.63685
H     -1.97865     2.12453    -0.02432
O     -2.09663     1.92355     1.87397
H     -1.87941     1.09022     2.35531
O      1.20975     1.73745     0.99991
H      0.24413     1.87452     0.86162
O      1.25052     0.75460     2.03261
H      1.08558    -0.06568     1.54368
O     -2.95528     2.29010    -1.51127
H     -3.74493     2.67221    -1.90576
O     -2.54344     1.36571    -2.51142
H     -1.63715     1.68975    -2.69639
O      0.31057     2.92201    -1.59541
H      1.27279     3.01676    -1.60542
O      0.09934     1.85446    -2.52473
H      0.45457     1.07026    -2.05045
O      1.79261    -1.19379    -1.97875
H      2.61613    -0.73944    -1.73838
O      0.90869    -0.33048    -1.25343
H      0.04614    -0.80216    -1.26037
O     -0.64186    -2.40019     1.74409
H     -1.15179    -2.27903     0.92670
O      0.69170    -2.09726     1.31127
H      1.04094    -2.98129     1.10094
O      0.79607    -3.83086    -0.90412
H      1.34735    -3.14019    -1.29591
O      1.72215    -4.38344     0.04312
H      1.34511    -5.25908     0.16390
O     -0.45101     0.12503     4.06306
H      0.18185     0.48553     3.41668
O     -1.49762    -0.30784     3.19865
H     -1.14246    -1.14095     2.82682
