 40
-1516.6413320656588
O      2.23947    -0.90679    -0.07078
H      1.53508    -0.22869    -0.02838
O      2.29847    -1.41079     1.26166
H      1.54668    -2.04397     1.28426
O     -0.41272    -0.16548     1.63499
H     -0.00846     0.03041     2.49205
O     -1.52883    -0.99504     1.96616
H     -2.24492    -0.47929     1.56285
O      2.16713     4.00774    -0.12670
H      2.75348     4.75965    -0.01648
O      0.90887     4.57299     0.26804
H      0.28859     4.01096    -0.24105
O      1.34448     1.75408     0.97315
H      1.83434     2.57901     0.76050
O      1.83889     1.38168     2.25980
H      2.29295     0.55974     2.01533
O     -3.35234     0.99967     0.77877
H     -2.66806     1.69521     0.65981
O     -3.78116     0.78644    -0.56503
H     -4.71621     0.99711    -0.49376
O      0.50137     0.01921    -2.58938
H      0.74466    -0.89954    -2.40551
O     -0.03803     0.36632    -1.32025
H     -0.76282    -0.30369    -1.21163
O     -1.65650    -1.72602    -1.20996
H     -1.21842    -2.48309    -0.76137
O     -3.02233    -1.85910    -0.80573
H     -3.30122    -0.93350    -0.86766
O      1.78246    -2.74307    -2.53200
H      2.56190    -2.68623    -3.09276
O      2.32462    -3.22715    -1.30254
H      2.49519    -2.38056    -0.82710
O     -0.15747    -3.55245     0.09147
H      0.72545    -3.64156    -0.30709
O      0.15915    -3.02548     1.38615
H     -0.57006    -2.39253     1.53556
O     -0.81631     2.81653    -0.77224
H     -0.48400     1.94295    -1.09698
O     -1.14980     2.52119     0.58715
H     -0.34312     2.04572     0.88197
