 12
-454.9727463476279
O     -0.66650     0.78181    -1.68290
H     -1.01672     0.75970    -2.57828
O      0.57046     0.07717    -1.86343
H      0.98839     0.25498    -1.00038
O      1.34529    -0.61129     1.27239
H      0.40549    -0.35615     1.32337
O      1.84971     0.47852     0.48692
H      2.79668     0.33312     0.56957
O     -1.29057    -0.03610     1.49076
H     -1.83667    -0.45331     2.16342
O     -1.81261    -0.65265     0.30484
H     -1.37595    -0.10242    -0.37160
