 32
-1213.307755871118
O     -0.08363     0.00343     1.56251
H      0.50591    -0.72312     1.24897
O      0.67574     0.57300     2.62677
H      0.86579     1.44435     2.24870
O      2.03754    -2.53680    -0.33085
H      1.17953    -2.98834    -0.27153
O      1.87278    -1.57339     0.70469
H      2.37639    -0.81839     0.36360
O      0.10784    -1.04295    -2.04342
H      1.00896    -0.68750    -2.12162
O     -0.66493    -0.22882    -2.92689
H     -1.10297     0.37338    -2.29521
O     -1.84978     1.26030    -0.97266
H     -2.24785     0.61214    -0.35355
O     -0.77674     1.80179    -0.20467
H     -0.53377     1.06053     0.39946
O      1.80690     1.20165    -1.54241
H      0.95015     1.64575    -1.46712
O      2.20106     1.11525    -0.17581
H      2.79369     1.87028    -0.06036
O     -2.94862    -0.73075     2.06213
H     -2.08621    -0.42608     2.37707
O     -2.75008    -0.67126     0.65181
H     -2.43269    -1.56086     0.42396
O     -0.41433    -3.75372    -0.31318
H     -0.58718    -4.49509    -0.90140
O     -1.38683    -2.80544    -0.74457
H     -0.82125    -2.18252    -1.25227
O      1.14703     3.39123     1.73824
H      0.71614     4.09067     2.24083
O      0.91093     3.79561     0.39082
H      0.20286     3.17417     0.13653
