 20
-758.3069552181179
O     -0.65271    -1.44162     1.01140
H     -0.33966    -1.39361     0.08971
O     -1.37306    -0.21142     1.15793
H     -0.65417     0.44856     1.14702
O      0.58942     1.56405     0.61416
H      1.38516     1.03275     0.76072
O      0.49448     1.52526    -0.81708
H     -0.47074     1.64783    -0.94530
O      2.07479    -0.66418     1.52792
H      1.21880    -1.10799     1.64100
O      2.29957    -0.13736     2.83744
H      3.04050    -0.67478     3.13441
O      0.83661    -1.08405    -1.21322
H      0.81460    -0.10447    -1.26056
O      0.09967    -1.43531    -2.38258
H      0.74315    -1.98441    -2.83988
O     -2.12060     1.67215    -1.30864
H     -2.58290     1.93830    -2.10765
O     -2.34725     0.25605    -1.32387
H     -2.18029     0.04579    -0.38299
