 40
-1516.638496342674
O      2.61582    -0.23354     1.35703
H      2.14430     0.58928     1.60074
O      2.29168    -0.34440    -0.03472
H      1.33460    -0.56264    -0.01630
O     -2.99031     0.87908     0.35685
H     -2.88266     1.80242     0.66482
O     -2.88123     1.05810    -1.05850
H     -2.91464     0.12551    -1.35047
O      0.58486     2.66562     0.68555
H      1.41986     2.65726     0.17614
O      0.94904     1.85584     1.80484
H      0.20414     1.22010     1.80755
O     -0.18086    -1.00296     0.58890
H      0.01984    -1.78874     1.12768
O     -0.80349    -0.13134     1.54469
H     -1.61951     0.13732     1.06433
O     -2.02553     3.24756     1.14289
H     -1.05561     3.15466     1.03094
O     -2.14739     3.39975     2.55345
H     -2.52566     4.28228     2.60436
O     -0.20521     0.65330    -1.72890
H     -0.89681     1.26026    -1.40806
O      0.24435     1.26525    -2.93259
H      1.09098     1.61450    -2.61991
O     -1.25286    -1.70865    -2.16340
H     -0.83635    -0.82362    -2.01111
O     -2.54960    -1.54938    -1.56757
H     -2.42807    -1.97345    -0.70673
O     -0.01149    -3.72123    -0.82966
H     -0.42365    -3.01525    -1.36862
O     -1.04437    -3.94276     0.14615
H     -0.57069    -4.46275     0.80650
O      2.25174    -4.01020     1.03618
H      1.81851    -3.95661     0.17281
O      1.58670    -2.94771     1.72644
H      2.21599    -2.20920     1.64701
O      2.86807     2.12517    -0.63693
H      2.83271     1.14204    -0.50235
O      2.65215     2.25912    -2.03791
H      3.54283     2.38287    -2.37526
