 16
-606.6408468359001
O     -1.37625    -1.29251     1.30389
H     -1.82755    -0.82341     2.01360
O     -2.16008    -0.98460     0.14932
H     -1.76017    -0.15091    -0.15120
O      1.49349     0.07155     1.47814
H      0.78250     0.66556     1.18632
O      1.21944    -1.12182     0.74444
H      0.27699    -1.28720     0.95702
O      0.74345    -0.65363    -2.45411
H      1.43268    -0.69482    -3.12302
O      1.34269     0.23568    -1.50901
H      1.50463    -0.36190    -0.73597
O     -0.88317     1.42383    -0.56345
H     -0.07577     1.06784    -0.99729
O     -0.35140     1.89350     0.67483
H     -0.13739     2.80927     0.46862
