 24
-909.9764658137804
O     -2.67731    -0.74330     0.75354
H     -2.50609    -0.29052    -0.08310
O     -1.44127    -0.55451     1.43614
H     -0.84193    -1.16390     0.95443
O      0.81402     0.51456    -2.04734
H      1.19046    -0.16675    -1.43997
O      1.14060     1.74097    -1.40748
H      1.90569     2.03857    -1.90702
O      1.34323    -1.50641    -0.39693
H      1.52940    -1.17588     0.51168
O      0.03162    -2.06107    -0.21372
H     -0.37621    -1.92075    -1.09037
O     -1.48752    -1.48529    -2.36836
H     -2.36589    -1.87459    -2.41954
O     -1.81875    -0.14459    -1.98584
H     -0.93321     0.25959    -2.03020
O      2.85507     0.28805     1.80714
H      3.15989     0.23293     2.71742
O      1.53008    -0.22695     1.94318
H      0.98438     0.59238     1.79754
O      0.33304     1.95796     1.15190
H      0.56969     1.96856     0.20809
O     -1.09327     2.04218     1.09059
H     -1.32745     1.11817     1.33239
