 32
-1213.306744420134
O     -0.26290    -2.50012     3.03291
H      0.22312    -2.71003     3.83547
O      0.69028    -2.78901     2.00330
H      0.92060    -1.88872     1.69180
O     -2.86505     0.91324    -1.14538
H     -2.12714     0.33046    -1.40357
O     -2.32246     2.20220    -1.46093
H     -2.07016     2.49998    -0.57981
O      2.26230    -0.93416    -2.85069
H      3.21474    -1.02795    -2.92336
O      2.05320    -1.41891    -1.52219
H      1.14400    -1.74257    -1.59948
O      0.56267     2.26094     1.02133
H      0.82003     2.37061     0.09020
O     -0.71762     1.65618     0.80268
H     -0.80260     0.99647     1.51740
O      1.46056     1.95017    -2.76977
H      1.54801     0.99366    -2.65900
O      0.66846     2.29549    -1.64027
H     -0.24010     2.24088    -1.97756
O     -0.59962    -0.48335    -1.23244
H     -0.20827    -0.06561    -0.44033
O     -0.78844    -1.81771    -0.77506
H     -1.45194    -1.68523    -0.06674
O      2.26180     0.33114     1.86114
H      1.83465     1.19998     1.78502
O      1.41214    -0.39757     0.97088
H      1.97759    -0.55238     0.19652
O     -2.42708    -0.91494     1.14374
H     -2.74288    -0.11013     0.70175
O     -1.61120    -0.36576     2.18287
H     -1.16126    -1.16841     2.53140
