 32
-1213.3068128105813
O      3.01345     0.35962     0.62768
H      2.96277    -0.50319     0.18279
O      2.57713    -0.04966     1.92948
H      1.95115     0.66130     2.17578
O      0.52705    -1.39669    -3.21265
H      0.10159    -2.13354    -3.66086
O     -0.14396    -1.40392    -1.95122
H     -0.75670    -0.62721    -2.03676
O     -1.98480     0.52557    -2.05570
H     -2.05055     1.20581    -1.34995
O     -3.05728    -0.35345    -1.74040
H     -2.75727    -0.71168    -0.89521
O     -2.28995    -1.68593     1.86737
H     -2.68201    -2.44932     1.43551
O     -1.56254    -1.11555     0.78996
H     -0.64430    -1.45824     0.91972
O      1.08306     1.15882    -1.10702
H      1.80081     1.00918    -0.45122
O      1.81043     1.40281    -2.30617
H      1.55685     0.62302    -2.81358
O      0.96703    -2.02497     1.10218
H      1.49289    -1.47769     1.71430
O      1.73805    -1.85770    -0.09488
H      1.04322    -1.66460    -0.76078
O     -0.36323     0.56298     2.90160
H     -0.72616     0.85643     3.74497
O      0.56868     1.60534     2.60382
H      0.10927     2.05715     1.85989
O     -0.65501     2.50849     0.38315
H     -0.10923     2.10447    -0.32513
O     -1.89712     1.82340     0.25934
H     -1.73543     1.00625     0.75796
