 32
-1213.3060019740262
O      2.15999     1.43430     2.12317
H      3.04638     1.73576     2.33595
O      1.99288     1.98505     0.81784
H      1.01773     2.11586     0.79046
O     -1.34159    -2.56247    -0.39049
H     -1.82457    -1.83333    -0.83294
O     -0.64523    -3.13840    -1.49298
H     -0.64555    -4.06633    -1.24328
O     -1.43108     0.67702    -1.50246
H     -0.62056     0.12277    -1.56663
O     -2.45730    -0.31080    -1.34020
H     -3.00981     0.11600    -0.65197
O     -0.68248     2.06401     0.63906
H     -1.06098     1.59505    -0.13940
O     -1.21230     1.32614     1.73899
H     -0.71811     0.47385     1.70714
O      3.40869     0.42395    -0.87909
H      2.93561     1.03828    -0.28530
O      3.97937     1.32850    -1.82133
H      4.62026     0.74856    -2.23842
O      1.56171    -0.63080    -2.50612
H      2.33189    -0.24356    -2.04332
O      0.72956    -0.85286    -1.35823
H      0.49826    -1.79762    -1.44613
O     -0.04995    -1.05394     1.76461
H     -0.14491    -1.62178     0.98483
O      1.34925    -1.15971     2.02798
H      1.58816    -0.22300     2.09636
O     -4.00048    -0.33246     1.56566
H     -4.87793    -0.08157     1.86835
O     -3.63481     0.82481     0.81379
H     -2.84605     1.14055     1.31434
