 36
-1364.9763448310857
O      3.21587    -0.66998     1.82584
H      3.16295     0.30835     1.79683
O      3.22868    -0.92520     0.40392
H      2.43206    -1.48095     0.33504
O     -2.92434    -0.39373    -0.99010
H     -2.60726     0.34205    -1.54378
O     -2.16545    -1.51503    -1.44479
H     -1.30348    -1.14877    -1.73304
O     -2.45400    -2.80315     1.73726
H     -2.83940    -3.67310     1.86667
O     -1.55462    -3.07358     0.66927
H     -1.94568    -2.57119    -0.07852
O      0.92581     0.09786    -1.20175
H      0.53152    -0.29317    -0.39118
O      0.19053    -0.51358    -2.26157
H     -0.04590     0.27472    -2.77657
O     -0.82467     0.22547     1.26683
H     -0.51421    -0.48724     1.86461
O     -2.22633     0.32117     1.53650
H     -2.58176     0.00714     0.68827
O      0.58689     2.76121    -0.05253
H      0.76145     2.15036    -0.78400
O     -0.82068     2.60478     0.14350
H     -0.87164     1.81601     0.72790
O     -1.93924     1.84429    -2.15207
H     -1.54517     2.28211    -1.36102
O     -0.84336     1.85805    -3.06179
H     -1.24451     2.28821    -3.82183
O      2.90732     1.85520     1.07266
H      2.05458     2.27746     0.86170
O      3.54646     1.86095    -0.21036
H      3.53769     0.91105    -0.40169
O      0.84669    -1.66649     2.33518
H      1.76089    -1.31937     2.41348
O      0.86665    -2.00996     0.93939
H      0.04404    -2.54102     0.88036
