 32
-1213.3122774682406
O      1.07744    -1.17417     0.51626
H      1.00607    -1.00712    -0.45468
O     -0.27085    -1.48192     0.89822
H     -0.39225    -2.34239     0.45028
O     -0.17986    -3.71514    -0.55389
H      0.54297    -4.34526    -0.47256
O     -0.09870    -3.37055    -1.93627
H     -0.81729    -2.70937    -1.99715
O     -1.95449    -1.45292    -2.16092
H     -2.62979    -1.23667    -2.81130
O     -2.68703    -1.43352    -0.93365
H     -2.40968    -0.56325    -0.56488
O     -0.73346     3.33486     1.55097
H     -1.12359     2.43526     1.59256
O     -0.21409     3.45614     2.87487
H     -0.25395     4.40740     3.00234
O      1.68986     1.73632    -0.61120
H      1.71324     1.68702     0.37572
O      0.38416     2.26049    -0.86227
H      0.31395     2.97432    -0.21115
O      1.03554    -0.66521    -2.08296
H      1.59200     0.12226    -1.98594
O      1.98670    -1.70960    -2.31191
H      1.37205    -2.46150    -2.26365
O      1.26106     0.48378     2.58625
H      1.28080    -0.10284     1.80455
O      1.66729     1.74035     2.02948
H      1.06731     2.35264     2.49294
O     -1.76881     0.90344    -0.05921
H     -0.92915     1.24269    -0.42977
O     -1.49627     0.80987     1.33991
H     -1.06221    -0.07310     1.37366
