 20
-758.3027824821002
O     -0.79357    -1.29255     0.38215
H     -1.51390    -0.68595     0.62807
O     -0.71669    -0.98038    -1.01866
H      0.22879    -1.11988    -1.19595
O      2.78342    -0.61931    -1.17993
H      2.87552    -0.86707    -0.24979
O      1.83461    -1.60712    -1.59199
H      2.21016    -1.90395    -2.42569
O     -0.70634     2.38514     1.07436
H     -1.61600     2.33538     0.75400
O     -0.04033     1.70190    -0.00526
H      0.66754     1.23973     0.48129
O      1.71658     0.47484     1.61247
H      1.44040     0.60525     2.52595
O      1.65555    -0.94457     1.46100
H      0.75746    -1.06318     1.08024
O     -2.72340     1.20429    -0.71862
H     -1.81982     0.95432    -0.96779
O     -3.06504     0.12516     0.15505
H     -3.53053    -0.48430    -0.42763
