 40
-1516.6520036213874
O      3.02689    -0.11124    -0.88652
H      2.52989     0.61460    -1.31594
O      3.00430    -1.14533    -1.88280
H      2.03878    -1.28785    -1.96804
O     -1.66773    -0.54172    -0.27710
H     -1.83147     0.39394    -0.01941
O     -2.91301    -0.94090    -0.83630
H     -2.94343    -0.33799    -1.59956
O     -0.44385     2.83016     2.19261
H      0.14239     2.05306     2.33089
O     -1.17777     2.87144     3.41472
H     -0.91129     3.73312     3.74908
O      0.88826     0.17385     0.97001
H      1.69998    -0.35946     0.83542
O      0.87778     0.46640     2.36951
H      0.25739    -0.22808     2.65515
O     -1.78020     2.83321    -0.90652
H     -0.79795     2.83285    -0.84240
O     -2.12777     2.03946     0.23584
H     -1.68342     2.51463     0.97163
O      0.77471     2.28603    -0.58456
H      0.84791     1.52233     0.03127
O      1.26973     1.69997    -1.78561
H      0.45945     1.37454    -2.22254
O     -2.27882     0.89191    -2.73092
H     -2.20579     1.67495    -2.14919
O     -0.89337     0.63469    -2.98225
H     -0.84073    -0.32876    -2.88944
O      2.10791    -2.32476     1.37021
H      1.21355    -2.62384     1.59773
O      2.39311    -3.13275     0.22109
H      2.99104    -2.55118    -0.27575
O      0.31242    -2.91767    -1.49458
H      1.04630    -3.08724    -0.86981
O      0.41589    -1.50509    -1.61731
H     -0.27510    -1.18765    -0.98178
O     -0.46611    -2.75612     2.24709
H     -0.81086    -3.25393     2.99234
O     -1.02204    -1.46545     2.46913
H     -1.47367    -1.31671     1.62397
