 36
-1364.9781692500842
O      0.69206     2.10439     0.81275
H      0.97168     1.43032     1.44977
O     -0.64154     1.68132     0.53290
H     -0.63706     1.66331    -0.43543
O     -1.88998     1.02570    -1.99211
H     -2.53807     0.52660    -1.46644
O     -1.40096    -0.00619    -2.85617
H     -0.67443     0.46443    -3.28600
O      2.58127     0.15122     1.94440
H      3.08274     0.43689     1.16348
O      2.13222    -1.13241     1.50141
H      1.42419    -1.31747     2.14773
O      1.24370     1.08241    -2.80245
H      1.34524     0.37378    -2.13156
O      2.28289     0.73638    -3.71412
H      2.47053     1.59971    -4.08985
O     -3.20804    -2.15107     1.93867
H     -2.29392    -2.46878     1.82111
O     -2.95534    -1.15451     2.94628
H     -3.10391    -0.35642     2.40624
O     -3.00947     0.52867     0.95843
H     -2.09415     0.84402     0.84001
O     -3.14860    -0.42741    -0.10020
H     -3.38350    -1.21858     0.42425
O      3.24220     1.29485    -0.40730
H      2.46516     1.87758    -0.39758
O      3.98109     1.76281    -1.53088
H      3.82597     1.04483    -2.15753
O      1.13620    -0.84261    -0.97855
H      1.54283    -0.96408    -0.09086
O     -0.24912    -1.08487    -0.66374
H     -0.68839    -0.84717    -1.50657
O     -0.28180    -1.11117     2.65088
H     -1.12680    -1.05663     3.13661
O     -0.60236    -2.14364     1.71528
H     -0.50861    -1.67419     0.86110
