 24
-909.9754358043999
O     -1.19112    -1.30348     1.06643
H     -0.54218    -1.15856     1.77780
O     -1.90800    -0.07443     1.08781
H     -1.96766     0.14808     0.14482
O     -1.65966     1.81458    -1.06772
H     -1.12032     2.31765    -0.44241
O     -1.04436     2.14451    -2.31700
H     -1.00458     1.27093    -2.72367
O      1.66752    -0.22890    -1.03201
H      1.28108     0.46812    -0.45915
O      1.31101    -1.43418    -0.34777
H      0.34070    -1.43993    -0.40580
O     -0.88699    -1.40059    -1.94263
H     -0.84589    -2.28822    -2.31377
O     -0.18166    -0.63417    -2.92609
H      0.65923    -0.48131    -2.45075
O      1.96501    -0.72256     2.15238
H      1.80018    -1.12019     1.27202
O      0.78330    -1.09972     2.85700
H      1.10502    -1.79103     3.44416
O      0.92199     1.51845     0.81934
H      1.46659     1.13521     1.52577
O     -0.22458     1.97392     1.53482
H     -0.81483     1.19506     1.51095
