 32
-1213.310663622731
O      2.83066    -1.27989    -1.77076
H      2.34549    -0.47316    -2.03138
O      1.82853    -1.94234    -1.00071
H      1.40048    -2.53017    -1.63766
O      0.15241    -1.46847     0.97524
H      0.93107    -1.59479     0.39860
O     -0.79942    -2.29081     0.29461
H     -1.64598    -1.96523     0.65910
O      2.10507     0.56277     2.03655
H      1.93033     1.52625     1.99240
O      2.57746     0.35831     0.70565
H      3.44132    -0.04412     0.83712
O      1.09950     0.80593    -2.18265
H      0.30471     0.24093    -2.18057
O      0.93591     1.52233    -0.96247
H      1.60388     1.08289    -0.39308
O      0.21149     3.17650     2.42489
H     -0.22634     2.34268     2.16507
O      1.40850     3.10183     1.64841
H      1.23066     3.69512     0.91043
O     -0.88603    -0.96159    -1.98137
H     -0.75601    -1.49709    -1.16514
O     -1.92606    -1.66815    -2.64851
H     -2.67028    -1.46059    -2.07249
O     -3.09988    -0.92211     0.73577
H     -2.67434    -0.06018     0.53509
O     -4.00226    -1.07446    -0.35654
H     -4.85357    -1.01326     0.08556
O     -0.93367     0.85531     1.57725
H     -0.45530     0.00649     1.46056
O     -1.39963     1.07728     0.24440
H     -0.57079     1.30429    -0.23663
