 32
-1213.3129389188914
O      2.56056     0.84656     0.13598
H      2.27089     0.56262    -0.75781
O      2.59385    -0.40115     0.83950
H      2.42711    -0.06704     1.73190
O     -0.48465    -1.72783    -1.82132
H     -1.07388    -1.49377    -2.56997
O     -1.34610    -1.45167    -0.72061
H     -0.78987    -1.74587     0.02454
O     -1.85954     0.57680    -3.77502
H     -0.96441     0.73173    -3.41613
O     -1.85793    -0.84337    -3.90743
H     -1.76186    -0.97247    -4.85611
O     -1.95420    -0.54668     2.97511
H     -1.11338    -0.99807     2.81160
O     -1.56600     0.81109     2.74270
H     -1.87169     0.95705     1.82367
O      1.49360    -0.02047    -2.16299
H      0.90920    -0.78974    -2.01463
O      0.52818     0.97369    -2.50192
H      0.21581     1.24159    -1.61182
O      0.52635    -2.10643     1.06688
H      1.31051    -1.56227     0.83926
O      0.39010    -1.82277     2.45080
H      0.56671    -2.68568     2.83704
O      1.09620     1.02261     2.63794
H      0.14821     0.99076     2.89683
O      1.25595     2.38250     2.22504
H      1.96000     2.26936     1.57464
O     -0.39024     1.64472    -0.12193
H      0.04998     1.51865     0.73749
O     -1.69992     1.09516     0.07788
H     -1.63389     0.22691    -0.37307
