 16
-606.63995750284
O     -1.14151     1.59553     1.78849
H     -1.24382     2.53170     1.98552
O     -1.95006     1.43927     0.61845
H     -1.26996     1.41210    -0.08734
O      1.04531     0.17309     1.29129
H      0.22604     0.63290     1.56979
O      0.59742    -1.18160     1.32478
H      1.37172    -1.62447     1.68318
O      1.22642     1.33169    -1.19287
H      1.33864     0.89433    -0.33419
O     -0.17539     1.12639    -1.40105
H     -0.20416     0.17542    -1.60503
O      0.69612    -2.45664    -1.72709
H      0.16085    -3.07642    -2.22988
O     -0.32185    -1.60994    -1.19276
H     -0.06524    -1.58462    -0.25414
