 32
-1213.3109639380107
O      2.60230     1.01517     2.49340
H      3.27244     1.51482     2.96887
O      2.32892     1.90484     1.41212
H      1.39625     2.15599     1.59947
O     -0.91840    -2.90893    -0.54236
H     -0.08823    -3.03180    -1.04347
O     -1.40559    -1.77486    -1.26873
H     -1.91504    -1.29838    -0.58751
O     -0.78874     0.98966    -1.63050
H      0.11923     0.92465    -1.27270
O     -1.34176     2.09110    -0.90579
H     -2.21426     1.73045    -0.69319
O     -0.31739     2.38168     1.49379
H     -0.65349     2.34440     0.56636
O     -0.92214     1.21316     2.05811
H     -0.31425     0.49456     1.77816
O      1.73539     0.46734    -0.97832
H      2.20046     1.05239    -0.35994
O      2.12586     0.95639    -2.26679
H      1.75824     0.22643    -2.79122
O      1.29667    -2.24279    -1.85477
H      1.59541    -1.60110    -1.19326
O      0.70107    -1.35057    -2.81195
H     -0.19222    -1.23660    -2.42546
O      0.22670    -2.00078     1.79995
H     -0.23457    -2.32939     1.00617
O      0.69290    -0.74048     1.30703
H      1.61440    -0.72785     1.60304
O     -3.21950     0.79033     0.78106
H     -2.47052     0.96008     1.39449
O     -3.02386    -0.59369     0.51852
H     -3.77825    -1.00702     0.94842
