 32
-1213.3085509789726
O      1.60398    -1.37952     2.62449
H      0.72667    -1.23337     2.21247
O      1.42921    -0.77618     3.90212
H      1.59704    -1.51625     4.49179
O     -0.58657    -0.03779    -2.91152
H     -1.45705     0.36131    -2.75815
O     -0.85307    -1.04009    -3.89321
H     -1.10795    -1.76952    -3.31254
O     -1.76721    -2.44788    -1.68692
H     -1.16284    -2.04647    -1.03101
O     -3.00618    -1.84396    -1.33721
H     -3.51696    -2.59563    -1.01785
O      1.02532     1.54874    -1.46072
H      0.45183     0.99962    -2.03231
O      0.08103     2.40863    -0.82339
H      0.31320     2.30430     0.11984
O      2.46863    -0.23906    -0.14723
H      2.15920     0.55592    -0.62803
O      2.97275     0.32972     1.06607
H      2.74522    -0.37865     1.69665
O     -2.44417     0.50980    -0.20883
H     -2.75978    -0.29458    -0.66403
O     -2.36106     1.42629    -1.29563
H     -1.54415     1.91087    -1.07082
O      1.03513     2.26237     3.03403
H      0.92023     1.40589     3.45652
O      0.91256     1.89693     1.66374
H      1.78794     1.48950     1.47778
O      0.08818    -1.44944    -0.02781
H      0.97998    -1.03997    -0.08222
O     -0.46638    -0.75514     1.09096
H     -1.09075    -0.14028     0.65423
