 36
-1364.9774884325523
O      1.70137    -3.01152    -1.60583
H      1.24636    -3.18222    -0.75125
O      2.39473    -1.80341    -1.32652
H      3.31417    -2.08408    -1.27102
O     -0.65572    -2.22312    -2.79413
H      0.24903    -2.56244    -2.66336
O     -1.45312    -3.38545    -2.53729
H     -1.41180    -3.44340    -1.56453
O      0.67022     3.20171     2.06730
H      0.81908     3.49019     1.14653
O      1.61959     2.13733     2.16941
H      1.06483     1.42747     2.55804
O      0.30182    -0.80639     1.77935
H      0.56278    -0.26878     0.99782
O     -0.10965     0.18203     2.71700
H     -1.00679     0.40887     2.38723
O     -1.38763    -0.70614    -0.78969
H     -1.20857    -1.12931    -1.67530
O     -1.83084     0.60425    -1.11186
H     -0.99360     1.08459    -1.19757
O     -2.05604     2.57228     1.31889
H     -1.29896     2.71889     1.90623
O     -2.25820     1.16319     1.47429
H     -2.32463     0.87138     0.54327
O      0.77369     3.67424    -0.56380
H      1.30475     2.93790    -0.90424
O     -0.50983     3.40796    -1.12178
H     -1.06783     3.36289    -0.33194
O      2.35542     1.23732    -0.25172
H      2.22607     1.52776     0.67500
O      1.21320     0.38725    -0.40831
H      1.60681    -0.38505    -0.86142
O      0.17864    -3.19498     0.59306
H      0.25038    -2.45140     1.22647
O     -1.19969    -3.15866     0.21414
H     -1.35417    -2.19987     0.11454
