 36
-1364.971115442445
O      0.63153     0.08487     0.35014
H      0.11020     0.88000     0.06801
O      1.78517     0.72883     0.90640
H      1.40704     1.08088     1.72783
O     -1.64364    -1.06349    -2.00249
H     -0.72769    -1.23833    -2.30386
O     -1.57175     0.31912    -1.64359
H     -1.92011     0.78283    -2.41362
O     -0.08098     0.82257     3.16342
H     -0.40760    -0.10385     3.05976
O      1.05691     0.65480     4.01067
H      0.75047     1.08585     4.81469
O     -1.33577    -1.40631     2.35303
H     -1.93598    -0.96975     1.70961
O     -0.40360    -2.08208     1.50615
H      0.02114    -1.33545     1.03414
O     -0.20075     2.43923    -0.37097
H      0.26524     2.50214    -1.23532
O     -1.42998     3.11704    -0.65193
H     -1.96526     2.73418     0.06113
O     -2.63479     0.30883     0.79302
H     -2.23693     0.37753    -0.10308
O     -2.37774     1.59705     1.35013
H     -1.59915     1.43102     1.90189
O      1.80842    -0.67623    -2.11007
H      1.48526    -0.53921    -1.20249
O      0.92593    -1.68247    -2.61473
H      1.12054    -2.43314    -2.01348
O      1.39969     2.13735    -2.45813
H      1.58524     1.25425    -2.82319
O      2.61966     2.50136    -1.81532
H      2.54108     2.06789    -0.95211
O      1.36584    -3.35690    -0.59556
H      2.05002    -4.00330    -0.39573
O      0.15770    -4.09125    -0.35742
H     -0.18892    -3.58610     0.40002
