 32
-1213.3091454723988
O      3.04305     1.78881     1.64214
H      2.34836     2.36198     1.26676
O      3.76695     1.44926     0.45873
H      4.67510     1.59058     0.74111
O     -0.84838    -3.51341    -0.86618
H     -1.17778    -2.81179    -1.45014
O      0.34618    -2.91953    -0.35322
H      0.06018    -2.65141     0.54231
O     -3.27051    -1.28023    -1.72098
H     -3.74576    -0.89330    -2.46318
O     -1.92771    -1.34083    -2.19963
H     -1.52765    -0.58065    -1.71897
O      0.92165     3.15435     0.57226
H      0.62066     2.58704    -0.17072
O      1.30594     4.34998    -0.09899
H      0.71862     4.98821     0.31626
O      2.12165    -0.60937     0.33710
H      2.78546     0.11224     0.29132
O      1.85668    -0.86413    -1.04514
H      1.33535    -1.69203    -0.96281
O      0.28120     1.25220    -1.23086
H      0.92175     0.50416    -1.26667
O     -0.90433     0.62131    -0.74198
H     -0.63619     0.33077     0.16006
O     -0.68702    -1.61926     1.75606
H     -1.60999    -1.46386     1.45953
O     -0.17208    -0.28383     1.63979
H      0.75498    -0.44943     1.36476
O     -3.33622     0.48586     1.15553
H     -2.53089     0.72308     1.63484
O     -3.08999    -0.89402     0.91004
H     -3.22903    -0.95566    -0.05546
