 28
-1061.6470750297665
O      0.15067    -1.89182    -3.36379
H     -0.68606    -1.83846    -2.88136
O      1.09099    -2.02548    -2.29365
H      1.43028    -1.11440    -2.20216
O      0.11992    -0.35373     2.79367
H     -0.75384    -0.00697     2.52040
O      0.72361     0.79455     3.37158
H      1.12290     0.41319     4.15833
O      1.40359     1.40099     0.84616
H      1.28583     1.26744     1.79880
O      0.41255     2.40688     0.57247
H      1.93124     0.64645    -0.71080
O     -1.60060    -0.91900    -0.81699
H     -0.66188    -0.96948    -0.53935
O     -1.64582     0.24069    -1.66866
H     -2.02940     0.88047    -1.03968
O     -2.11234     1.43682     0.66246
H     -1.21497     1.78994     0.81314
O     -2.15241     0.27698     1.50116
H     -2.17318    -0.41935     0.81990
O      0.74729     1.48426    -1.89140
H     -0.04388     0.92586    -2.01766
O      1.78215     0.52108    -1.66209
H      0.48283     2.38882    -0.40268
O      0.36041    -2.64664     0.35367
H      0.62465    -2.85607    -0.55629
O      0.73235    -1.27291     0.36680
H      0.64090    -1.05208     1.31103
