 28
-1061.647594517871
O      0.22690    -2.96323    -0.45214
H      1.19954    -3.09015    -0.40206
O     -0.17011    -3.21927     0.88715
H     -0.80323    -3.92851     0.75790
O     -0.18806    -0.73982    -1.83211
H     -0.15329    -1.57280    -1.32768
O     -1.40292    -0.18116    -1.33058
H     -1.27976     0.77426    -1.50449
O     -1.21324    -0.98516     2.02717
H     -0.69603    -1.67988     1.59076
O     -0.85690     0.15701     1.25941
H      3.70055    -3.29288    -0.60573
O     -1.84211     3.77165     1.82820
H     -1.05496     3.84928     1.27144
O     -2.46183     2.62586     1.23815
H     -1.98740     1.88715     1.64694
O     -1.24024     2.49966    -1.11686
H     -1.95076     2.63833    -0.45895
O     -0.13545     2.94265    -0.31402
H      0.52854     2.24733    -0.48417
O      2.75781    -1.75386    -1.11372
H      2.53065    -1.07763    -0.44582
O      2.87833    -2.90947    -0.28758
H     -1.27767    -0.04385     0.39868
O      1.66828     0.13616     0.40927
H      0.76399     0.19469     0.78808
O      1.58038     0.91670    -0.78394
H      1.05029     0.31077    -1.34183
