 36
-1364.973413743667
O      1.90830     1.52089     1.45589
H      1.47005     1.57971     0.58853
O      0.79499     1.67553     2.34439
H      0.75639     0.78406     2.74469
O      1.47561    -2.42889    -0.32492
H      1.25462    -2.15246    -1.24578
O      1.30328    -1.18990     0.36742
H      2.15176    -0.72787     0.18327
O     -0.95964    -1.17690     2.49596
H     -1.38496    -0.35168     2.77924
O      0.41577    -0.94067     2.82650
H      0.83674    -1.17925     1.97325
O      0.72205    -1.48588    -2.71258
H      0.72838    -0.50774    -2.68960
O     -0.66457    -1.76629    -2.89241
H     -0.94232    -1.91157    -1.97702
O     -2.39005     1.22587     1.88756
H     -2.70940     0.58674     1.22464
O     -1.53778     2.03539     1.05908
H     -0.68313     2.00408     1.54615
O     -2.34420     1.89939    -1.56681
H     -2.16304     2.16641    -0.64313
O     -3.75800     2.02387    -1.65043
H     -3.83825     2.68066    -2.34853
O      0.53876     1.23688    -0.83320
H      0.19323     0.37711    -0.52402
O      0.38882     1.13754    -2.24180
H     -0.56752     1.28772    -2.33731
O      4.54592    -1.50060    -0.39360
H      3.90046    -2.20478    -0.24797
O      3.79076    -0.36145     0.02677
H      4.30417    -0.02438     0.77075
O     -2.80210    -0.59235    -0.04275
H     -2.85242    -0.00797    -0.81512
O     -1.45467    -1.07520    -0.15334
H     -1.22509    -1.23546     0.78736
