 40
-1516.6400170287077
O      1.73796     3.28098    -0.21843
H      0.75636     3.24306    -0.19553
O      2.00932     3.21670     1.18031
H      2.74244     3.83117     1.25510
O     -0.39447     0.65957     1.91254
H      0.35217     0.29904     2.44547
O     -1.10181     1.44182     2.87762
H     -1.99366     1.22633     2.57181
O      0.40263    -2.65971    -3.06305
H      0.89270    -2.61500    -3.89184
O      1.42926    -2.51647    -2.08206
H      1.36400    -1.56649    -1.84997
O     -3.12840     0.27469     1.33242
H     -2.62080    -0.56347     1.26457
O     -3.33990     0.54490    -0.05193
H     -4.23496     0.89654    -0.04271
O      1.89510    -0.13729     2.99197
H      2.18638    -1.02057     2.71548
O      2.91327     0.68009     2.40109
H      2.38444     1.39170     2.01438
O      1.65058     0.83562    -1.91173
H      1.75974     1.60407    -1.32983
O      1.06109    -0.10169    -1.01587
H      0.10126     0.09488    -1.06262
O     -1.13002     1.73197    -1.03345
H     -1.98220     1.34806    -0.75612
O     -0.77496     2.51820     0.11407
H     -0.60018     1.82367     0.79579
O     -1.58763    -1.88030     1.05453
H     -0.67503    -2.20431     1.17153
O     -2.02233    -2.61015    -0.09265
H     -2.10797    -1.89020    -0.73833
O      0.99370    -2.76990     0.79062
H      1.00020    -3.11768    -0.11894
O      2.24670    -2.10134     0.88994
H      2.06987    -1.28695     0.39344
O     -1.35749    -0.76723    -2.35817
H     -0.78167    -1.49945    -2.66005
O     -1.27758     0.12314    -3.47513
H     -0.94192     0.91570    -3.03457
