 32
-1213.3012795052296
O     -0.38025    -2.94013     0.86517
H     -1.01984    -2.75422     1.57667
O      0.87212    -2.51197     1.44199
H      0.61083    -1.69422     1.90954
O     -1.34292    -0.66301    -0.47978
H     -0.62939    -1.33395    -0.45121
O     -2.50787    -1.41548    -0.81401
H     -2.50168    -1.37651    -1.77779
O      1.22431    -1.33907    -1.60063
H      1.22975    -0.46205    -2.03922
O      2.15370    -1.11671    -0.52976
H      1.86696    -1.78784     0.12157
O      0.80206     4.04925    -1.18976
H      0.65001     3.17216    -0.80011
O      1.08330     3.68566    -2.54964
H      0.42947     4.20479    -3.02833
O      0.45205     1.61033     0.03320
H     -0.08068     0.91363     0.46657
O      1.76597     1.30253     0.52955
H      1.97255     0.45275     0.07425
O      0.85386     1.01036    -2.80619
H      1.01648     1.97541    -2.73682
O     -0.56160     0.95127    -2.99240
H     -0.83604     0.63002    -2.12164
O     -0.00655    -0.13721     2.26120
H     -0.77345     0.04847     2.82672
O      1.08835     0.46094     2.98141
H      1.47696     0.96346     2.24016
O     -2.22633    -2.16043     2.70812
H     -3.03969    -2.63009     2.92244
O     -2.70204    -0.87752     2.30767
H     -2.51650    -0.90739     1.35497
