 16
-606.6360644289953
O     -2.28153    -0.03375     1.19615
H     -2.58784     0.84434     0.94939
O     -1.20877     0.25247     2.09628
H     -0.42824     0.18612     1.51219
O      0.85383    -0.31369    -0.64326
H      0.44779    -1.14890    -0.33801
O      1.08650     0.34651     0.61462
H      1.21121     1.25479     0.29356
O      1.40615     2.06626    -2.14425
H      1.27195     1.12716    -1.95018
O      1.64031     2.55694    -0.81515
H      2.56648     2.81644    -0.86034
O     -0.34369    -2.51428     0.25042
H     -0.33513    -3.44559     0.01301
O     -1.54344    -2.07577    -0.38867
H     -1.81081    -1.37921     0.24123
