 32
-1213.3111455163018
O      0.38496     1.80395     0.00574
H      0.58590     0.99670    -0.51208
O      1.64094     2.03456     0.65206
H      1.47598     1.68151     1.53805
O     -0.71115    -2.22807     0.75117
H      0.21502    -1.99986     0.97786
O     -0.60304    -2.40072    -0.66347
H     -1.40746    -1.94961    -0.99311
O     -1.79150     0.47758    -1.80317
H     -0.90714     0.17588    -2.05573
O     -2.50022    -0.77365    -1.66906
H     -3.14446    -0.49046    -0.99126
O     -1.06237     0.55581     2.28021
H     -1.45124     1.21523     1.66832
O     -2.05972    -0.46953     2.24567
H     -1.60266    -1.15408     1.71944
O      0.87451    -0.34096    -1.46625
H      0.61207    -1.25070    -1.20789
O      1.33211    -0.50839    -2.80239
H      2.25265    -0.24295    -2.66899
O      3.50298     0.41327    -0.38605
H      2.94504     1.18698    -0.16593
O      3.90681     0.72748    -1.71983
H      4.85847     0.82698    -1.61093
O      1.48870    -0.23601     2.38969
H      0.51891    -0.10440     2.38613
O      1.66138    -1.17186     1.32544
H      2.37832    -0.76777     0.81154
O     -3.61730     0.54555     0.37060
H     -3.33970     0.06077     1.17039
O     -2.66110     1.62305     0.44010
H     -2.20501     1.48198    -0.40992
