 20
-758.3070737713596
O     -0.40362    -2.41701    -0.34844
H     -1.25818    -2.86151    -0.36329
O     -0.51755    -1.51739     0.75344
H     -1.08395    -0.82082     0.34703
O      2.04058    -0.48888     0.96040
H      1.15234    -0.88224     1.02596
O      1.74918     0.81405     0.44293
H      1.38663     0.57132    -0.43097
O     -2.68232     1.19867    -0.39035
H     -2.11205     1.61069     0.28158
O     -1.89103     0.06349    -0.76697
H     -1.35352     0.39739    -1.49855
O      0.84292    -0.49292    -1.71081
H      0.41975    -1.28352    -1.32399
O      2.05711    -1.04610    -2.21963
H      2.61858    -1.02294    -1.43326
O     -0.35959     1.24904     2.01939
H      0.52051     1.20911     1.58329
O     -0.92969     2.39558     1.37320
H     -1.19120     2.92455     2.13194
