 36
-1364.9771868677965
O     -0.98437     1.25367     1.79667
H     -0.63245     0.36415     2.05416
O      0.03187     2.12367     2.28357
H     -0.36948     2.47542     3.08446
O      2.30669     0.75880     2.22210
H      1.52533     1.34608     2.24589
O      2.40620     0.36461     3.58318
H      1.83812    -0.41858     3.58439
O      0.01319    -1.14647     2.32166
H      0.63764    -1.53288     1.67792
O     -1.01747    -2.12508     2.43576
H     -1.58943    -1.89165     1.68630
O      2.15157     0.93126    -0.62896
H      1.39222     1.55002    -0.63265
O      3.21727     1.72308    -0.12107
H      3.23622     1.38457     0.79083
O     -2.25552    -0.82963    -2.82832
H     -2.15475    -1.67634    -2.35227
O     -2.93514    -0.08943    -1.81069
H     -2.28250     0.60378    -1.57725
O     -1.37468     1.80127    -0.83845
H     -1.20782     1.65654     0.11559
O     -0.10158     2.22041    -1.32462
H     -0.14314     1.83660    -2.22378
O      0.43886    -1.49420    -0.47096
H      0.67642    -1.18511    -1.36970
O      1.68876    -1.51290     0.21060
H      1.98428    -0.58654     0.06795
O      0.95854    -0.32019    -2.87997
H      1.63883     0.30443    -2.59432
O     -0.02997     0.56678    -3.41182
H     -0.83452     0.01021    -3.35900
O     -2.69117    -1.77005     0.21764
H     -3.06370    -1.05755    -0.33581
O     -1.99687    -2.50858    -0.79493
H     -1.07205    -2.29247    -0.57209
