 36
-1364.978147825242
O      2.62120    -0.57685    -1.44546
H      1.93536    -1.28335    -1.41193
O      1.88542     0.50553    -2.00890
H      1.76080     1.10544    -1.24282
O     -3.32674    -1.26332    -1.41460
H     -2.60912    -0.63244    -1.63038
O     -3.43461    -1.05278    -0.00125
H     -4.28939    -1.45015     0.19540
O      0.08428    -2.90515    -2.28750
H     -0.24984    -2.06259    -2.64339
O      0.76523    -2.41962    -1.13239
H      0.04567    -2.35387    -0.47009
O     -0.52558    -0.30267    -2.74935
H      0.38521     0.05243    -2.62910
O     -1.24522     0.40228    -1.74365
H     -0.63797     0.36244    -0.99105
O      1.16075     2.04219     0.05428
H      1.18013     2.29602     1.01334
O      0.21917     2.95646    -0.50887
H     -0.60098     2.66547    -0.08466
O     -2.26353     1.82677     0.91266
H     -2.84970     1.11797     0.61087
O     -1.74332     1.31345     2.14319
H     -1.18375     0.56871     1.83622
O     -0.41037    -0.60450     0.94338
H      0.51303    -0.85470     1.19284
O     -1.02759    -1.88013     0.75481
H     -1.92158    -1.60524     0.45732
O      0.86055     2.46745     2.65364
H     -0.10381     2.42722     2.75835
O      1.21248     1.12843     3.02194
H      2.09213     1.04624     2.63377
O      2.08730    -1.27139     1.34633
H      2.63670    -2.02705     1.58124
O      3.03207    -0.21349     1.16312
H      3.08392    -0.21761     0.18216
