 32
-1213.3189825617721
O      0.84431     0.94514     1.87070
H      0.80339     1.61353     1.15529
O      1.86716     0.07512     1.40203
H      1.39930    -0.51791     0.77603
O     -2.39554    -0.22244    -0.83737
H     -1.63635    -0.83663    -0.75952
O     -1.97260     0.67883    -1.85462
H     -1.81073     1.48636    -1.33087
O      3.35769     0.29349    -1.25856
H      4.30114     0.23652    -1.44404
O      3.29447     1.41004    -0.37197
H      2.92526     0.96221     0.42122
O      0.27175     2.52133    -0.19075
H      0.48734     2.10386    -1.05087
O     -1.14658     2.65680    -0.25404
H     -1.42135     2.32564     0.61593
O      1.11971     1.18853    -2.36748
H      2.01417     0.86825    -2.13097
O      0.46234    -0.04112    -2.69982
H     -0.47932     0.20858    -2.58831
O      0.91372    -1.51977    -0.53005
H      0.91337    -1.11034    -1.42227
O     -0.43770    -1.97447    -0.45332
H     -0.41360    -2.57203     0.32391
O     -0.61153    -3.30995     1.82843
H     -0.55914    -4.17160     2.25309
O     -2.01724    -3.07093     1.79289
H     -2.02410    -2.14826     2.08983
O     -2.34777     0.81240     1.62182
H     -2.57312     0.40128     0.76639
O     -1.55104    -0.23215     2.19547
H     -0.64860     0.14551     2.14409
