 36
-1364.9696251848313
O      0.66227    -0.67176    -1.77706
H      0.16069    -1.51325    -1.77769
O     -0.16787     0.16593    -2.57471
H     -1.01684     0.13298    -2.09043
O     -0.08878    -3.13318     1.36509
H     -0.66053    -3.45477     0.65450
O      0.06431    -1.78267     0.93500
H      0.99425    -1.73979     0.63589
O     -1.05033     1.00274     1.60691
H     -0.38963     1.30059     0.94142
O     -0.20405     0.29779     2.52899
H     -0.16426    -0.58999     2.10622
O      3.30544     0.40626     2.77577
H      3.59402    -0.10168     2.00307
O      2.34872     1.28660     2.16787
H      1.49440     0.96365     2.51788
O     -2.76619    -0.69486    -0.14566
H     -2.11897    -0.33415     0.48195
O     -2.55897     0.10844    -1.30896
H     -2.92332     0.97478    -1.04329
O     -1.69367     2.82473    -0.85555
H     -1.51508     3.75780    -0.67802
O     -2.88411     2.55683    -0.10084
H     -2.52004     2.24767     0.74402
O      0.76850     1.71513    -0.19164
H      0.76892     1.43858    -1.12861
O      1.42462     2.98280    -0.19091
H      2.06158     2.81206     0.51788
O      3.22691    -0.47164    -1.16745
H      2.44975    -0.63008    -1.73091
O      2.64078    -0.67775     0.11734
H      2.23723     0.18930     0.28854
O     -0.90851    -2.79714    -1.98746
H     -1.35721    -3.03318    -2.80732
O     -1.84685    -3.15866    -0.98027
H     -2.23554    -2.29308    -0.75133
