 20
-758.310631507842
O     -1.70640    -1.69965     0.82963
H     -1.92141    -1.02977     0.15102
O     -2.39994    -1.16814     1.95531
H     -3.05068    -1.85817     2.11486
O      1.87479     1.78957    -0.18442
H      2.25895     1.12469    -0.77664
O      0.93802     2.42911    -1.05773
H      0.09404     2.24631    -0.61247
O      0.90445    -1.02895     1.14869
H      0.01879    -1.43676     1.11747
O      0.55665     0.29800     1.57934
H      1.13763     0.84164     1.00688
O      0.90737    -0.90282    -2.01273
H      1.07550    -1.67081    -2.56500
O      2.09811    -0.85626    -1.22353
H      1.73365    -1.04989    -0.33356
O     -1.45855     1.49486    -0.06134
H     -1.17188     1.10172     0.77939
O     -1.61561     0.34249    -0.89961
H     -0.72442     0.21680    -1.26285
