 32
-1213.3110060527085
O      2.23908     1.64362    -0.59096
H      2.15028     1.21646    -1.45792
O      1.00886     2.37547    -0.51063
H      1.08387     2.80175     0.36830
O     -0.82363    -2.64447    -0.80427
H     -0.18352    -2.21683    -1.40472
O     -0.08712    -2.76187     0.41508
H     -0.51766    -2.10731     0.98792
O     -0.67062     1.05489    -2.16112
H     -0.26645     1.56990    -1.43571
O     -1.67556     0.31636    -1.47641
H     -2.48485     0.62959    -1.89613
O      1.04945     3.14432     2.03980
H      1.19775     3.93254     2.56979
O     -0.38067     3.09547     1.99806
H     -0.52422     2.13778     1.88548
O      0.74342    -1.16875    -2.55838
H      0.18974    -0.36057    -2.57113
O      2.04726    -0.62420    -2.34406
H      2.28697    -1.08752    -1.52019
O      2.15544    -0.50443     1.05608
H      2.24412     0.26975     0.46655
O      2.29763    -1.59753     0.14377
H      1.48438    -2.11547     0.32161
O     -0.89710     0.52928     1.37591
H     -1.72977     0.07863     1.14034
O     -0.27706    -0.44991     2.21464
H      0.64696    -0.40569     1.89638
O     -3.59130    -1.60212    -0.18990
H     -2.79827    -2.08093    -0.47821
O     -3.07833    -0.99057     0.98813
H     -3.66178    -1.31758     1.68270
