 24
-909.9713176410926
O     -2.62783    -0.81688     0.12938
H     -2.82598    -0.11756    -0.51520
O     -2.88256    -0.13022     1.35636
H     -2.05083     0.36095     1.47949
O      0.85011    -2.03444    -1.19547
H      1.48798    -1.32153    -1.05218
O     -0.33908    -1.28074    -1.41297
H     -0.87004    -1.45789    -0.61729
O      2.68711     0.94395     0.28064
H      1.82441     1.41312     0.31896
O      2.65658     0.43356    -1.05087
H      3.50799     0.72626    -1.38807
O     -1.08938     1.22869    -1.82965
H     -0.80315     0.29037    -1.78348
O     -2.50436     1.11027    -1.74595
H     -2.76602     1.10695    -2.67168
O      2.26256    -0.98526     2.18625
H      2.55997    -0.33736     1.52562
O      0.95012    -1.23268     1.67092
H      0.90493    -2.19492     1.68523
O     -0.43195     1.03261     1.49406
H      0.14527     0.24098     1.50307
O      0.19604     1.86417     0.51340
H     -0.39685     1.77519    -0.25677
