 32
-1213.3120273892541
O      1.61401    -0.67375     2.14465
H      1.16517    -1.15105     1.42078
O      2.57389     0.10938     1.44230
H      2.04080     0.86008     1.12438
O      0.09519    -1.90441     0.33314
H     -0.86664    -2.06565     0.42139
O      0.17449    -1.40462    -1.00383
H      1.14275    -1.22918    -1.08843
O     -1.93051     0.07583    -1.79978
H     -1.27489    -0.54529    -1.42238
O     -2.45464     0.77163    -0.67385
H     -3.10302     0.14066    -0.32604
O     -0.15798     2.11935     0.74610
H     -0.20891     3.05270     0.97342
O      1.11075     2.01421     0.11075
H      0.83187     1.90738    -0.82339
O      3.06117     0.39062    -1.71704
H      2.24067     0.49303    -2.22492
O      2.78669    -0.84462    -1.04036
H      2.97693    -0.59807    -0.11122
O      0.03916     1.75349    -2.37445
H     -0.81902     1.27295    -2.26390
O      0.77691     0.82126    -3.16001
H      0.83618     1.29390    -3.99615
O     -1.20342     0.06237     2.01625
H     -0.86132     0.80728     1.48062
O     -0.62657     0.31972     3.29057
H      0.26084    -0.05106     3.13395
O     -3.25315    -1.27074     1.11444
H     -2.52875    -0.81117     1.59832
O     -2.53356    -2.37538     0.56967
H     -2.92738    -3.12113     1.03216
