 16
-606.6399492709969
O     -1.04982     1.62295     1.82079
H     -1.17073     2.56281     1.98762
O     -1.94792     1.38739     0.73226
H     -1.32906     1.35176    -0.02740
O      1.13141     0.24049     1.20027
H      0.32344     0.68947     1.52545
O      0.72826    -1.12317     1.32148
H      1.53691    -1.52775     1.64794
O      1.07727     1.29117    -1.33511
H      1.27628     0.89669    -0.47141
O     -0.33035     1.03876    -1.41083
H     -0.34574     0.07889    -1.57133
O      0.64218    -2.50766    -1.68207
H      0.09601    -3.14225    -2.15326
O     -0.36721    -1.68554    -1.09559
H     -0.03820    -1.61651    -0.18236
