 32
-1213.3019845405502
O     -0.31761    -2.94358     0.84675
H     -0.94055    -2.76180     1.57357
O      0.94161    -2.48012     1.38088
H      0.67292    -1.67872     1.87120
O     -1.38511    -0.67586    -0.44558
H     -0.64919    -1.31674    -0.53103
O     -2.54250    -1.43918    -0.76728
H     -2.62941    -1.28835    -1.71574
O      1.16365    -1.30483    -1.64629
H      1.12779    -0.43085    -2.09107
O      2.13243    -1.05989    -0.61440
H      1.87652    -1.72901     0.05321
O      0.39600     4.04752    -1.25122
H      0.46005     3.18540    -0.80466
O      0.86499     3.70247    -2.56114
H      1.68372     4.20359    -2.62216
O      0.37767     1.61451     0.02143
H     -0.11684     0.90063     0.47249
O      1.71858     1.34769     0.45949
H      1.92870     0.50178    -0.00246
O      0.69947     1.02684    -2.83391
H      0.72488     2.00752    -2.79827
O     -0.69251     0.75624    -2.98801
H     -0.94991     0.61713    -2.06744
O      0.03974    -0.13727     2.27227
H     -0.70599     0.03615     2.86902
O      1.14917     0.49602     2.93674
H      1.49496     0.99651     2.17301
O     -2.11137    -2.20147     2.75401
H     -2.90295    -2.69266     2.99900
O     -2.63470    -0.92967     2.38151
H     -2.47742    -0.94664     1.42361
