 36
-1364.985877636255
O      0.26418     2.80709     0.31104
H      1.24478     2.84175     0.19605
O     -0.04652     1.71410    -0.55846
H      0.09906     0.97791     0.07722
O     -2.72164    -1.23355     1.60579
H     -2.62808    -0.77055     0.74664
O     -1.43252    -1.83142     1.77075
H     -1.46622    -2.59546     1.16616
O      0.54673    -0.16635     1.15250
H     -0.19065    -0.75828     1.45663
O      1.06020     0.37543     2.36940
H      0.31167     0.95589     2.61220
O      3.48806     1.62492     0.66389
H      2.77824     1.38536     1.27645
O      2.80870     2.46211    -0.26699
H      2.82643     1.91285    -1.07558
O     -2.49555     1.75778     2.04784
H     -2.61482     0.82204     2.26354
O     -1.14580     1.96596     2.45998
H     -0.81730     2.52145     1.72943
O     -2.47104     0.20400    -0.62407
H     -2.08137     1.08978    -0.58469
O     -1.61268    -0.42738    -1.57728
H     -1.87164    -1.36291    -1.48583
O      2.56609     0.66450    -2.26501
H      2.81580    -0.20881    -1.91171
O      1.18603     0.42732    -2.56053
H      0.71706     1.02298    -1.93882
O     -1.01638    -3.48427    -0.46986
H     -0.26360    -2.98621    -0.85305
O     -2.07337    -3.04042    -1.31430
H     -2.14478    -3.74918    -1.96087
O      0.91516    -1.99252    -1.59651
H      0.76827    -1.20157    -2.16291
O      2.13660    -1.64374    -0.95084
H      1.80873    -1.16941    -0.17299
