 16
-606.6371919342686
O     -2.36718    -0.57250     1.11737
H     -2.32657    -1.51470     1.30590
O     -1.76717    -0.01188     2.29132
H     -1.01214     0.45258     1.89514
O      1.40191     0.67078     1.29791
H      1.70441     0.71288     0.37739
O      0.24646     1.50990     1.22227
H      0.52002     2.27188     1.74527
O      1.57802     0.81364    -1.63053
H      0.63055     0.57388    -1.59974
O      2.16753    -0.46162    -1.92006
H      2.38329    -0.36487    -2.85275
O     -0.88657    -0.25084    -1.10059
H     -1.44011    -0.24533    -0.29194
O     -0.64825    -1.66075    -1.25937
H      0.31653    -1.67829    -1.20038
