 24
-909.9790000822577
O     -1.60856     0.46820     0.79522
H     -2.09979     0.54616    -0.05086
O     -1.29009    -0.92868     0.82983
H     -0.67791    -0.93547     1.59054
O      0.27576    -1.61376    -1.22693
H     -0.37205    -1.38101    -0.53142
O      0.15735    -0.48116    -2.10231
H      0.95016     0.02254    -1.83261
O      2.51852    -0.92009    -0.02447
H      1.83634    -1.46591    -0.46333
O      2.30340     0.30363    -0.73594
H      1.83999     0.85721    -0.07513
O     -2.74685     0.90845    -1.59904
H     -3.62269     1.17713    -1.89090
O     -2.56651    -0.31204    -2.33121
H     -1.59225    -0.33230    -2.35527
O      0.52628    -0.61785     2.72319
H      0.57149    -0.49058     3.67561
O      1.47844    -1.65783     2.50134
H      2.01506    -1.25679     1.79938
O      0.39797     2.85812     0.00977
H      0.70785     3.58880     0.55135
O      0.71442     1.75501     0.86115
H     -0.15477     1.29122     0.90902
