 32
-1213.3121838677735
O      1.41620    -1.25016     0.65337
H      1.54683    -1.01826    -0.29397
O     -0.00463    -1.45492     0.69044
H     -0.06750    -2.35352     0.29894
O     -0.06436    -3.71354    -0.67402
H      0.43280    -4.53283    -0.58019
O     -1.33958    -4.05359    -0.12398
H     -1.87465    -3.40247    -0.59815
O     -1.96393    -1.74903    -2.54361
H     -2.43270    -1.08198    -3.05259
O     -2.46714    -1.55230    -1.21535
H     -2.10824    -0.66166    -0.98592
O     -0.73396     3.23429     1.57187
H     -1.11542     2.37069     1.30947
O     -0.51367     2.98467     2.95935
H     -0.57028     3.87303     3.32087
O      1.83344     1.82909    -0.59479
H      1.82049     1.71586     0.38670
O      0.58956     2.49073    -0.85742
H      0.49523     3.07188    -0.08935
O      1.73052    -0.51562    -1.89185
H      1.90928     0.41374    -1.64989
O      0.51495    -0.36821    -2.63070
H     -0.01782    -1.10393    -2.30011
O      1.95835     0.50118     2.62313
H      1.78532    -0.11783     1.88509
O      1.68154     1.75874     2.00629
H      0.91850     2.09034     2.51492
O     -1.49109     0.85682    -0.66793
H     -0.70818     1.38181    -0.93131
O     -1.34583     0.82205     0.75035
H     -0.81496     0.00395     0.86602
