 36
-1364.9753958539118
O      0.66240     1.34781     1.78957
H      0.12874     0.63039     2.19308
O      1.28167     0.61248     0.73623
H      0.79465     0.88143    -0.06647
O     -0.09609    -1.89453    -1.19812
H      0.56426    -1.20399    -1.39246
O     -1.19710    -1.08464    -0.78198
H     -1.26574    -1.26130     0.18776
O     -1.64041    -1.26314     1.86251
H     -2.16461    -0.44513     2.00270
O     -0.43902    -0.94464     2.57194
H      0.20212    -1.56722     2.16908
O      3.76839    -0.10896     0.07542
H      2.92121     0.09963     0.51235
O      3.69894    -1.53323     0.01552
H      4.56291    -1.78231     0.35618
O     -2.76844     1.17953     1.86755
H     -2.33846     1.78792     1.22018
O     -3.98728     0.87018     1.18441
H     -4.62184     1.29980     1.76541
O     -0.35459     2.70844    -0.19761
H     -0.07444     2.49653     0.71241
O     -1.77871     2.70370    -0.06209
H     -2.03445     2.28882    -0.90258
O      2.38741     0.99112    -2.35261
H      2.97202     0.65303    -1.66220
O      1.21606     0.24035    -2.06261
H      0.51477     0.75023    -2.51250
O     -2.04878     1.04429    -2.23269
H     -1.77428     0.20243    -1.80982
O     -0.98835     1.27293    -3.15331
H     -1.40508     1.08630    -4.00023
O      1.45844    -2.36913     1.31420
H      2.27282    -2.18292     0.81241
O      0.94484    -3.52709     0.65542
H      0.43475    -3.10536    -0.06034
