 40
-1516.641269702097
O      1.95221     0.83942    -0.10712
H      1.56379     1.42497    -0.77530
O      1.98290    -0.40495    -0.80618
H      1.85937    -1.04323    -0.08844
O     -0.60622    -2.32395     2.43232
H     -0.33235    -3.24356     2.29685
O     -1.54893    -2.40503     3.50714
H     -1.44071    -1.51068     3.86870
O     -1.00279     1.58508     0.28281
H     -1.11070     0.61771     0.10338
O     -2.26128     1.89705     0.87807
H     -2.10095     1.55984     1.76891
O     -2.04385     1.02126     3.54228
H     -2.15761     1.69514     4.21865
O     -1.00814     0.21933     4.09432
H     -0.25851     0.44915     3.49656
O     -1.36153    -1.01035     0.22629
H     -1.17113    -1.52977     1.03710
O     -0.84924    -1.85136    -0.82657
H     -0.97059    -1.23322    -1.57953
O     -0.79159     0.17421    -2.49704
H     -0.59470     1.11750    -2.32487
O      0.46656    -0.30218    -2.98881
H      1.00328    -0.35106    -2.17053
O     -0.72984     3.25968    -1.70757
H     -0.95347     2.78395    -0.87497
O      0.40736     2.48891    -2.10703
H      0.51909     2.74998    -3.04509
O      0.98467     0.54727     2.39357
H      1.26169     0.77736     1.48280
O      1.83802    -0.55371     2.70752
H      1.17892    -1.25650     2.80442
O      0.63629    -3.74471     0.44305
H      0.11195    -3.15613    -0.13224
O      1.79237    -2.93530     0.64292
H      2.48402    -3.46176     0.23175
O      0.56333     2.57280    -4.72845
H      0.26195     2.53535    -5.64260
O      1.53975     1.53098    -4.67645
H      1.06627     0.84749    -4.16229
