 36
-1364.970784808993
O      3.06204     1.86593    -2.48763
H      2.09664     1.85878    -2.58216
O      3.19901     3.08530    -1.74803
H      3.89578     3.53389    -2.23797
O     -3.79639    -2.04772     1.11063
H     -4.65486    -2.47238     1.04298
O     -3.28081    -2.24921    -0.20241
H     -2.32412    -2.33475    -0.00204
O      3.47358    -1.20909     3.12154
H      3.48213    -2.01969     3.63634
O      2.26074    -1.37440     2.39282
H      2.56596    -1.38287     1.45808
O      0.36618     1.70499    -1.98809
H     -0.57030     1.45477    -2.13492
O      0.29017     2.14924    -0.62581
H      1.08952     2.69085    -0.55447
O     -2.13383     0.78095    -1.87960
H     -2.44415     0.76685    -0.94399
O     -2.03202    -0.60251    -2.20832
H     -2.78170    -0.98063    -1.72679
O     -2.81788     1.30426     1.68148
H     -1.91450     1.04425     1.90861
O     -3.06623     0.46094     0.55186
H     -3.42247    -0.36178     0.94019
O      2.46879     0.23499    -0.09861
H      2.89135     0.54150    -0.91406
O      2.50393    -1.19133    -0.25778
H      1.59549    -1.39426    -0.56583
O      0.51690     0.74168     2.42660
H      1.21117     0.05919     2.49452
O     -0.17261     0.28554     1.26711
H      0.05968     0.96840     0.59774
O     -0.69884    -2.05990     0.21660
H     -0.47462    -1.21181     0.66880
O     -0.01148    -1.90842    -1.02541
H     -0.63938    -1.35750    -1.53224
