 32
-1213.3053148723639
O      1.82172     0.01637     0.73540
H      2.49285    -0.32446     0.11538
O      1.73848     1.37871     0.30004
H      0.76666     1.50149     0.20595
O     -1.95660    -0.66190    -2.16418
H     -2.54088    -0.67747    -2.93160
O     -2.67255     0.15966    -1.24836
H     -2.93953    -0.47403    -0.56225
O      1.01739    -0.12468    -3.54043
H      1.96622    -0.02632    -3.39091
O      0.58788     0.19531    -2.20918
H     -0.35553    -0.04475    -2.24634
O     -0.91495     1.70479     0.11769
H     -1.53367     1.16538    -0.40545
O     -1.58318     1.72646     1.37859
H     -0.84909     1.51934     1.99932
O      3.45966     0.72362    -2.08273
H      2.86094     1.25391    -1.53355
O      3.68224    -0.39371    -1.21886
H      4.62777    -0.32872    -1.04432
O      0.29910    -2.39442    -0.60152
H      0.59800    -1.89171    -1.37544
O     -0.36035    -1.36786     0.13115
H      0.39628    -0.83834     0.46978
O     -0.42139    -0.00968     3.94519
H     -1.07443    -0.40798     3.33499
O      0.24113     0.94516     3.10940
H      1.06175     0.49577     2.86804
O     -3.08492    -0.47548     1.52266
H     -2.68713     0.41191     1.59847
O     -2.07649    -1.25938     2.16249
H     -1.47890    -1.45039     1.41141
