 28
-1061.6473715966174
O      0.98818    -1.48491    -2.52121
H      0.73227    -1.79807    -3.39414
O      1.67585    -0.26944    -2.81715
H      1.07633     0.38434    -2.40074
O      0.85974     0.36459     1.73586
H      0.13437     1.02195     1.84894
O      1.65707     0.97471     0.71821
H      2.22497     0.22609     0.44470
O     -1.30940     1.88356     2.00048
H     -2.07007     1.29899     1.80735
O     -1.52459     2.97070     1.09320
H      0.62577     1.42719    -0.52854
O     -0.23549    -1.82665     0.63227
H      0.20840    -1.07640     1.08087
O     -0.73136    -1.20796    -0.55162
H     -0.01081    -1.38022    -1.18916
O     -2.79739    -1.04757     1.91553
H     -2.17984    -1.52137     1.33912
O     -3.07760     0.09148     1.09798
H     -4.03653     0.06992     1.01155
O     -1.20407     1.33028    -1.00800
H     -1.22560     0.38200    -0.76902
O      0.16244     1.48844    -1.39283
H     -1.43996     2.51536     0.23214
O      2.66106    -2.23155    -0.26125
H      2.32496    -2.14106    -1.16226
O      3.30140    -0.96159    -0.12567
H      4.14727    -1.20187     0.26419
