 40
-1516.6402048911293
O      2.69801     0.73431    -0.14366
H      2.17208    -0.04954    -0.40458
O      2.33655     1.69924    -1.14136
H      2.05513     2.42440    -0.54373
O     -1.83193    -1.13401    -2.32162
H     -2.59303    -1.34584    -2.87309
O     -0.72089    -1.60096    -3.09199
H     -0.24749    -0.75173    -3.17427
O      1.47964     3.03018     0.95412
H      0.50839     3.05433     0.89717
O      1.69481     2.00898     1.93601
H      2.24885     1.40280     1.40868
O      0.70827    -4.16048     1.79993
H      1.25417    -4.82664     2.22380
O      1.72256    -3.30830     1.26889
H      1.48884    -3.27627     0.31928
O     -3.55141    -0.08610    -0.30510
H     -4.42240    -0.10061     0.10595
O     -3.58868     1.10263    -1.09409
H     -3.20206     1.75024    -0.46105
O     -0.85545     0.24985     1.54107
H      0.03361    -0.05600     1.86078
O     -1.12253    -0.81521     0.61423
H     -2.01803    -0.58338     0.30206
O      0.27320     0.87724    -2.68134
H      1.04795     1.16146    -2.14659
O     -0.79280     1.59329    -2.05269
H     -1.50621     0.93481    -2.06617
O      1.13702    -1.34525    -0.70687
H      0.26749    -1.23936    -0.25609
O      1.03606    -2.64756    -1.27075
H      0.39586    -2.46635    -1.98484
O      1.45718    -0.61845     3.54080
H      1.68180     0.32005     3.56900
O      1.46696    -0.78556     2.12320
H      1.64049    -1.74335     2.00161
O     -1.13324     3.07042     0.14881
H     -1.00753     2.53921    -0.66161
O     -2.21834     2.40878     0.78546
H     -1.75282     1.65337     1.20007
