 36
-1364.9765339429835
O      1.91884     0.16849     0.76802
H      2.02526    -0.66675     0.24861
O      1.22920     0.98206    -0.18624
H      0.89503     1.72765     0.36738
O     -1.59439    -0.19951     2.74460
H     -0.75116    -0.03111     3.20160
O     -1.13594    -0.07875     1.40017
H     -0.84406    -1.00503     1.22980
O      0.96957    -1.03484    -3.23500
H     -0.00165    -1.09107    -3.27090
O      1.16746     0.37622    -3.15160
H      1.22503     0.51181    -2.19403
O     -1.84506    -0.97307    -1.30706
H     -1.69423    -0.19587    -0.74632
O     -1.65779    -0.50007    -2.63943
H     -1.49666     0.45412    -2.50398
O     -1.12233     2.05567    -1.98159
H     -0.99290     2.72478    -2.66355
O     -2.23086     2.54353    -1.23428
H     -1.78879     2.82459    -0.41644
O      2.02877    -1.84769    -0.91545
H      1.74376    -1.70341    -1.84653
O      2.14521    -3.26797    -0.82932
H      1.23439    -3.47744    -0.58741
O     -1.09962     2.56301     1.50663
H     -1.11611     1.58138     1.50530
O      0.30063     2.84832     1.50519
H      0.57885     2.51404     2.38069
O      1.04443     0.19758     3.24106
H      1.36509     0.20833     2.30550
O      1.26264     1.54016     3.64942
H      2.16766     1.51995     3.97404
O     -0.69006    -2.63645     0.99901
H     -1.33293    -3.25593     1.36202
O     -0.56050    -3.08776    -0.34612
H     -0.99668    -2.34598    -0.81552
