 36
-1364.977692354418
O      1.74443     3.42586     0.14581
H      2.16564     4.26310    -0.07709
O      0.42583     3.81862     0.52838
H     -0.09437     3.52208    -0.23953
O     -3.88317    -1.41584     2.21558
H     -4.76074    -1.02822     2.17757
O     -3.20298    -0.59808     1.27097
H     -2.49099    -0.20562     1.81056
O      2.43605     1.33986     1.71908
H      2.21928     2.17782     1.26333
O      1.61177     1.42721     2.87456
H      2.23878     1.20888     3.56728
O     -1.48078     2.13941    -0.92207
H     -1.29147     1.48735    -0.22067
O     -0.37230     1.91532    -1.79988
H     -0.65359     1.09057    -2.26307
O     -0.89759    -0.51892    -2.64360
H     -1.29608    -1.05912    -1.93015
O      0.34596    -1.19654    -2.86646
H      0.96614    -0.66981    -2.32370
O     -0.60875     0.30883     0.81679
H     -0.44971    -0.65806     0.67198
O     -0.86015     0.37890     2.22521
H     -0.00052     0.73862     2.50460
O      2.01261    -0.64719    -0.04085
H      2.21121    -0.00174     0.66681
O      1.94129     0.20013    -1.18682
H      1.24906     0.83438    -0.93998
O     -0.70182    -2.25208     0.32246
H     -0.14264    -2.84898    -0.23868
O     -1.78962    -1.96809    -0.57398
H     -2.43912    -1.58636     0.05175
O      2.19585    -3.26437    -1.05231
H      2.11566    -2.38537    -0.64853
O      0.83438    -3.55366    -1.38205
H      0.70842    -3.06979    -2.21355
