 32
-1213.3115448709452
O      1.68717     1.76722     1.85719
H      2.32649     1.20092     1.38968
O      0.50503     0.95666     1.78875
H      0.02741     1.40503     1.04772
O      0.09623     0.72402    -2.14763
H     -0.79324     0.33608    -2.21615
O      0.86016    -0.43248    -1.81261
H      1.70399    -0.04236    -1.52666
O     -2.46772    -0.14724    -2.41261
H     -2.95881    -0.29965    -3.22498
O     -2.86960    -1.25387    -1.61699
H     -3.33129    -0.80045    -0.89239
O     -0.04787     2.55366    -0.22474
H      0.11017     1.99795    -1.01766
O      1.08667     3.42639    -0.24093
H      1.48976     3.16992     0.60140
O      3.25651     0.42559    -0.91091
H      4.14607     0.23812    -1.22452
O      3.33707     0.07894     0.46672
H      2.79942    -0.74724     0.47739
O     -1.50625    -2.40480     1.03830
H     -0.71075    -2.24300     1.58763
O     -0.85746    -2.46641    -0.24228
H     -1.52064    -2.04181    -0.81426
O      1.60727    -1.93657     0.58971
H      0.86322    -2.17287     0.00005
O      0.90801    -1.65871     1.80622
H      0.81969    -0.67652     1.78447
O     -2.29335     0.80020     0.81799
H     -2.35649     1.29000     1.64653
O     -3.20409    -0.28015     1.02682
H     -2.58983    -1.02368     1.18563
