 24
-909.9808707686249
O     -1.74679    -2.12859    -0.55948
H     -2.48330    -1.53369    -0.78353
O     -1.90849    -2.17707     0.86619
H     -1.14605    -1.63411     1.13819
O      0.47767    -0.89622    -1.35942
H     -0.29765    -1.41342    -1.04530
O     -0.12417     0.36831    -1.66261
H      0.55124     0.99522    -1.33127
O      2.98008    -0.45189    -0.45970
H      2.09208    -0.68440    -0.78947
O      2.70666    -0.33093     0.94457
H      2.83904     0.61927     1.07258
O     -3.39694    -0.02093    -0.69796
H     -3.89650    -0.10110     0.11761
O     -2.31127     0.78956    -0.25711
H     -1.65621     0.63192    -0.96979
O     -0.28200     0.78440     1.54726
H     -1.10137     0.72495     1.02565
O      0.12342    -0.58830     1.60737
H      1.06392    -0.54317     1.32818
O      1.70586     2.30469     0.63470
H      0.91385     1.81122     0.92653
O      1.53505     2.25161    -0.78700
H      2.45013     2.28121    -1.08570
