 36
-1364.9766395604718
O      1.00881    -0.03693    -1.60176
H      1.08184     0.80964    -2.07420
O      1.93575    -0.86929    -2.29265
H      2.53180    -1.11353    -1.56862
O     -0.18623     2.25289     1.91737
H      0.62335     1.72365     2.04386
O     -0.78910     1.54956     0.82786
H     -0.54095     2.11372     0.06844
O     -2.53375    -1.40741     0.59058
H     -2.09837    -1.31393    -0.28423
O     -1.55036    -0.89063     1.47918
H     -1.42274     0.03510     1.17788
O     -0.17626     2.36131    -2.50666
H     -0.95557     1.81703    -2.27962
O      0.03317     3.01795    -1.25977
H     -0.17916     3.93546    -1.45682
O     -2.04027     0.63723    -1.66044
H     -2.98024     0.48802    -1.39908
O     -1.54499    -0.69823    -1.75683
H     -0.58043    -0.53763    -1.68137
O     -4.55138     0.31151    -0.89641
H     -5.19798    -0.38305    -1.05191
O     -4.50187     0.40661     0.52915
H     -3.80375    -0.25713     0.71767
O      2.49853     0.66424     0.76646
H      1.69029     0.51207     0.25539
O      2.00003     0.65560     2.10251
H      1.73864    -0.28871     2.20261
O      4.08026    -1.27290    -0.14010
H      3.61874    -0.56613     0.36162
O      3.91527    -2.39123     0.72673
H      4.79123    -2.48414     1.11329
O      0.64064    -2.34222     0.96936
H     -0.19137    -1.92612     1.28363
O      1.57972    -1.95579     1.97375
H      2.40247    -2.26921     1.55501
