 24
-909.9777313861738
O     -1.57850     1.94938     0.58804
H     -0.92416     2.13878    -0.10371
O     -0.94412     0.88789     1.28971
H     -1.47417     0.11066     1.00870
O      0.20794    -0.19933    -1.47948
H      0.86081     0.02209    -0.76636
O      0.83825    -1.30663    -2.11600
H      1.14146    -1.82363    -1.35646
O      1.83534    -0.06529     0.56512
H      1.41431    -0.63852     1.23931
O      1.64284     1.25248     1.09406
H      0.68182     1.22587     1.29245
O     -1.69625    -1.88796    -0.53198
H     -1.12477    -1.20805    -0.94994
O     -2.46005    -1.10921     0.39305
H     -3.29970    -0.97850    -0.06180
O      0.38376    -1.69740     2.12730
H      0.50607    -2.05423     3.01503
O      0.30262    -2.87510     1.32419
H     -0.58702    -2.77166     0.95475
O      1.15323     2.41266    -2.49376
H      0.67358     1.58913    -2.65507
O      0.66260     2.76871    -1.19862
H      1.36245     2.45255    -0.60553
