 28
-1061.6423071020859
O     -0.36744    -1.78424    -1.97982
H     -0.63503    -1.00487    -2.49200
O      0.88177    -2.14079    -2.58756
H      1.51651    -1.63450    -2.05106
O     -0.86910    -1.57777     1.40844
H     -1.55115    -0.99418     0.99502
O      0.25307    -1.37731     0.54206
H     -0.07235    -1.69181    -0.34157
O      0.33324     0.04437     3.20023
H     -0.03850    -0.65686     2.62040
O     -0.82529     0.82792     3.48245
H      1.33137     1.14652     2.02732
O     -1.69169     1.27392    -1.89208
H     -1.90155     2.16789    -2.18776
O     -0.39635     1.03273    -2.43476
H      0.18094     1.26229    -1.68309
O     -2.77208     1.24829     1.18067
H     -2.00280     1.18170     1.76562
O     -2.58791     0.12099     0.33383
H     -2.25938     0.54311    -0.48379
O      0.54915     1.23962     0.33051
H      0.48970     0.25714     0.38610
O      1.65816     1.50885     1.18514
H     -1.14370     0.43222     4.29954
O      2.85395    -0.89394    -1.13100
H      3.75489    -1.05572    -1.43122
O      2.71997     0.51366    -1.34019
H      2.62688     0.82938    -0.42619
