 40
-1516.636452126112
O      2.87664     0.64735     0.95356
H      2.21747     0.65181     1.67323
O      3.02954    -0.75473     0.70549
H      2.97137    -0.75574    -0.25965
O     -0.88778    -0.04307    -0.35285
H     -1.31950     0.80107    -0.12941
O     -1.68222    -0.55142    -1.43559
H     -0.99174    -1.08220    -1.87438
O     -2.57194     1.13121     2.75631
H     -1.70470     0.76341     3.04106
O     -3.13808    -0.00091     2.09369
H     -3.81281    -0.27248     2.72401
O      0.85265     1.03394     2.72093
H      0.32576     1.70046     2.23120
O     -0.14875     0.11305     3.13905
H      0.01378    -0.67115     2.57467
O     -0.41426     2.80771     1.12888
H      0.10985     2.70357     0.30574
O     -1.73874     2.59255     0.62725
H     -2.19583     2.32025     1.44377
O      1.18000     2.11480    -0.84412
H      2.03880     1.88881    -0.45026
O      1.54761     2.85005    -2.01162
H      1.28793     2.20232    -2.69179
O      0.71686     1.09816    -3.93426
H      0.31078     1.34557    -4.76898
O      1.82873     0.30484    -4.36460
H      1.75856    -0.40572    -3.71196
O      0.05979    -2.15232     1.70317
H     -0.77625    -2.29276     1.21094
O      1.03566    -2.61437     0.77111
H      1.80057    -2.06413     1.01379
O      0.72247    -1.77045    -1.79090
H      0.77242    -2.13192    -0.87881
O      1.59421    -0.63821    -1.72160
H      0.99811     0.05887    -1.38740
O     -2.43798    -3.62076    -0.38722
H     -3.18204    -4.03903     0.05130
O     -2.31106    -2.44764     0.41017
H     -2.37486    -1.72483    -0.24836
