 28
-1061.6431571868934
O      0.66507    -2.09511     1.42231
H      0.47645    -2.30269     0.47760
O      2.08137    -1.90879     1.40796
H      2.12795    -0.95382     1.53456
O      2.02144     0.13414    -1.91875
H      2.74566    -0.10127    -2.50657
O      0.88436    -0.36537    -2.61937
H      0.30538     0.42095    -2.60591
O     -2.40550    -1.36542     1.72369
H     -2.64868    -0.57814     1.21858
O     -1.39600    -0.80841     2.57238
H     -1.74577    -2.04728    -0.17748
O     -1.35495     0.85584     0.39767
H     -0.43845     0.51402     0.50002
O     -1.39303     1.67412     1.57175
H     -1.30279     0.97938     2.25224
O      0.11617     2.96528    -1.79500
H     -0.40294     3.66282    -2.20679
O     -0.67532     1.81745    -2.09369
H     -1.06355     1.60865    -1.21917
O     -0.14017    -2.37230    -1.09377
H      0.26745    -1.77000    -1.74111
O     -1.49039    -1.89376    -1.09697
H     -0.59883    -1.26631     2.23940
O      1.71914     1.94509     0.91027
H      0.88322     2.43052     0.94815
O      1.23267     0.65158     0.57216
H      1.60205     0.50872    -0.32438
