 36
-1364.9766967423825
O      2.85212     0.18998    -0.47855
H      2.94502     0.19230    -1.44185
O      1.79391     1.14761    -0.35944
H      2.02260     1.58665     0.48154
O     -1.55958    -0.12743     3.23671
H     -2.32829    -0.00072     3.80016
O     -2.19988    -0.23367     1.96448
H     -1.78101     0.49871     1.46338
O     -0.12301    -1.92458    -1.53779
H      0.47274    -1.65764    -2.26555
O     -1.39637    -1.48285    -2.04173
H     -1.96680    -1.77524    -1.29823
O     -0.48075     0.99691    -2.24863
H     -0.99359     0.15422    -2.20823
O     -1.45514     1.95588    -2.64664
H     -1.69945     2.31761    -1.78429
O      1.93076     0.32920    -3.18717
H      1.09269     0.71262    -2.85522
O      1.52268    -1.00967    -3.46042
H      1.32173    -0.98091    -4.40127
O      0.72573    -0.61225     1.50812
H      1.31332    -0.68746     0.72923
O      0.90901    -1.83169     2.22717
H      0.02409    -2.20733     2.13362
O     -1.14808     1.67549     0.36423
H     -0.34122     1.44230    -0.13918
O     -0.81696     2.90808     0.99065
H     -0.41136     2.61046     1.82114
O      1.08464     1.61580     2.89463
H      0.93514     0.73789     2.47700
O      2.20944     2.07968     2.14321
H      2.95647     1.86389     2.71362
O     -2.32046    -2.33217     0.29887
H     -2.32683    -1.64037     0.98856
O     -1.28163    -3.19563     0.76018
H     -0.62108    -3.03751     0.07048
