 20
-758.3039766873529
O     -1.37822    -1.62360     2.14482
H     -1.92913    -0.98723     1.65860
O     -0.44135    -2.02220     1.13821
H      0.36024    -1.56702     1.43359
O      1.36788     0.23023     1.20198
H      0.78576     0.44869     0.44457
O      2.58149    -0.11953     0.52616
H      3.22548     0.21962     1.15370
O     -0.92309    -0.73051    -1.16930
H     -0.73223    -1.22213    -0.34220
O     -0.22815     0.50800    -0.92843
H      0.34907     0.54666    -1.71760
O      1.72259     0.41205    -2.70894
H      1.96736     0.75981    -3.57147
O      2.44146     1.28278    -1.83311
H      2.58415     0.68103    -1.08752
O     -2.31408     1.45624     0.82409
H     -1.93747     1.31250    -0.05351
O     -3.00947     0.21602     0.97735
H     -3.82638     0.50173     1.39709
