 32
-1213.3133467258733
O      2.80738    -2.55642     1.09441
H      3.50175    -3.14830     1.39950
O      2.91272    -1.45970     1.99668
H      2.82730    -0.72872     1.36788
O     -0.21444    -1.40351    -1.81417
H      0.06177    -1.57781    -0.89287
O      0.24638    -0.05889    -1.99470
H     -0.60484     0.42882    -1.99827
O     -1.34266     2.00165    -0.47037
H     -0.69087     2.46561    -1.04780
O     -2.01296     1.19201    -1.44219
H     -2.59536     0.64061    -0.88371
O      1.91052     0.52708     0.04089
H      1.30551     0.40343    -0.72007
O      1.48564     1.78362     0.58487
H      0.86833     1.48664     1.28631
O      1.47012     3.61983    -1.42603
H      1.56532     2.99626    -0.68166
O      0.41773     2.97591    -2.14944
H      0.86299     2.65777    -2.94169
O      0.25212    -1.92383     0.73949
H      1.10939    -2.35112     0.96371
O     -0.71611    -2.83863     1.26963
H     -1.43700    -2.67593     0.63785
O     -1.57346     0.81205     1.90226
H     -1.45893     1.38163     1.11663
O     -0.21252     0.57831     2.26363
H     -0.09043    -0.35394     2.02430
O     -3.16193    -0.74575     0.04786
H     -2.64735    -0.61850     0.86147
O     -2.68326    -1.99859    -0.43601
H     -2.13316    -1.73251    -1.19013
