 32
-1213.3083542599697
O      1.51372    -2.40376    -1.02175
H      1.84937    -2.24250    -0.12725
O      0.50976    -1.39064    -1.02570
H     -0.26962    -1.86505    -1.36765
O     -0.47171    -0.73362     3.87363
H      0.15223    -0.76657     3.12610
O     -1.60795    -0.12215     3.25485
H     -1.25317     0.72370     2.93876
O     -2.08297    -0.53036    -2.53522
H     -1.25034    -0.09068    -2.78465
O     -1.68134    -1.90061    -2.50274
H     -2.04870    -2.25344    -3.32096
O     -1.39408     1.87278     1.15280
H     -1.98462     1.18474     0.78456
O     -0.44447     2.03710     0.10210
H      0.38690     1.89874     0.58015
O      2.99689     1.29563    -0.45977
H      2.44996     1.54141    -1.23864
O      2.49504     2.21157     0.51815
H      3.16920     2.89984     0.51080
O      1.00039     1.86941    -2.20675
H      0.31616     2.05403    -1.53690
O      0.59736     0.60943    -2.73587
H      0.82638    -0.01815    -2.01870
O      0.85514    -0.45567     1.58454
H      0.23056    -0.83576     0.94082
O      2.08373    -1.07897     1.23416
H      2.52506    -0.35794     0.75958
O     -1.87630    -1.17675     0.85016
H     -1.92014    -0.96587     1.81031
O     -2.80695    -0.22125     0.32464
H     -2.69145    -0.36114    -0.62569
