 16
-606.6378004291779
O     -1.95523    -0.22463     0.96783
H     -2.57847    -0.92448     1.18592
O     -0.79720    -0.64439     1.70747
H     -0.40480     0.21928     1.92154
O      1.67675     0.98279     1.69902
H      1.68487     0.77998     0.75389
O      0.46859     1.74475     1.76714
H      0.69917     2.41071     2.42157
O      1.50893     0.31910    -1.21644
H      0.56390     0.49323    -1.42800
O      1.54432    -1.10450    -1.41469
H      1.90090    -1.15487    -2.30603
O     -1.11925     0.16516    -1.58018
H     -1.45342     0.04159    -0.67023
O     -1.13190    -1.18154    -2.06579
H     -0.30512    -1.49885    -1.67893
