 32
-1213.3134496606626
O      1.97737    -2.06024     0.79548
H      1.15388    -2.06988     0.25661
O      2.77015    -1.07282     0.14054
H      2.35835    -0.24338     0.42744
O     -1.22608    -1.99636     0.64937
H     -0.80869    -1.40181     1.31432
O     -0.33666    -1.86333    -0.45980
H     -0.61107    -1.02015    -0.88710
O     -1.04721     0.43989    -1.63348
H     -0.27794     1.03969    -1.71711
O     -1.97495     1.24831    -0.89947
H     -2.67725     0.59023    -0.71167
O     -0.75723     2.28520     1.24440
H     -1.20395     1.98674     0.42248
O     -0.06915     3.44763     0.79312
H     -0.08347     3.97985     1.59261
O      1.68194     1.63246    -0.15621
H      1.20292     2.41323     0.17343
O      1.34270     1.70129    -1.55078
H      1.96317     1.05420    -1.92789
O      1.29472    -1.23017    -2.87411
H      1.58295    -1.85314    -3.54936
O      2.52778    -0.61202    -2.50026
H      2.68922    -1.01323    -1.62230
O     -0.09707    -0.29503     2.31803
H      0.04051     0.62145     2.02939
O      1.14856    -0.62300     2.94191
H      1.47736    -1.29136     2.31144
O     -3.90142    -0.30329     1.21567
H     -4.82097    -0.58285     1.24539
O     -3.50891    -0.80916    -0.06212
H     -2.78789    -1.42760     0.19235
