 24
-909.9791872464426
O     -1.90470    -0.90664    -1.26049
H     -2.22468     0.01577    -1.19753
O     -1.69057    -1.24326     0.12061
H     -1.00354    -1.92118    -0.00666
O      0.47310    -1.59893    -2.08712
H     -0.43286    -1.23904    -2.02273
O      0.44257    -2.44687    -0.92108
H      1.21070    -2.07816    -0.44828
O      2.02272     0.23730    -0.97168
H      1.61015    -0.28621    -1.68311
O      2.35487    -0.84313    -0.07957
H      2.38004    -0.36446     0.77185
O     -2.63063     2.21783    -0.19249
H     -1.66245     2.12320    -0.11348
O     -2.80699     1.57736    -1.46272
H     -3.68279     1.88600    -1.71247
O      2.10104     0.60651     2.16792
H      1.15051     0.82595     2.06661
O      2.07185    -0.25094     3.30762
H      2.63223     0.24223     3.91358
O     -0.04834     1.60405     0.09713
H      0.71341     1.11047    -0.27841
O     -0.37689     0.83206     1.25835
H     -0.88293     0.08127     0.87713
