 32
-1213.312700489433
O      4.12155     0.08715     0.74704
H      4.71323     0.67178     1.22854
O      2.90156     0.81752     0.80965
H      2.32547     0.21429     1.33084
O     -1.40233    -1.68168     0.06099
H     -0.70641    -1.93788     0.69391
O     -0.57436    -1.17717    -0.99494
H     -1.09142    -0.41766    -1.33437
O     -1.05219     1.75841    -0.64300
H     -0.15551     1.68149    -1.03289
O     -1.84891     1.07858    -1.60896
H     -2.73726     1.14084    -1.20841
O     -1.28055     0.72984     1.82202
H     -1.25073     1.17665     0.95294
O     -2.53160     0.03765     1.75874
H     -2.32135    -0.65716     1.10448
O      1.50255     1.52936    -1.40081
H      2.09728     1.29100    -0.66039
O      1.76199     0.47775    -2.32813
H      2.24651     0.94609    -3.01456
O      2.13522    -2.20928    -0.63655
H      1.41391    -1.87612    -1.19400
O      3.29975    -1.97426    -1.41035
H      3.68848    -1.23439    -0.92737
O      1.03123    -0.60061     2.07440
H      0.14474    -0.17708     2.06883
O      0.74998    -1.92703     1.62760
H      1.42551    -2.05929     0.93622
O     -4.38521     1.74603     0.69475
H     -3.88336     1.13374     1.26074
O     -4.31533     1.02909    -0.54217
H     -5.22204     1.07802    -0.85632
