 36
-1364.9761043436665
O      1.56663     0.87413    -0.22993
H      0.63938     0.94609     0.06130
O      1.44554     1.02900    -1.64756
H      1.42118     0.07618    -1.94489
O     -0.95323     1.96344     0.79599
H     -0.88952     2.73201     0.20918
O     -2.32344     1.58259     0.66057
H     -2.35572     0.89254     1.35889
O     -0.20169    -2.26884     0.89094
H      0.75629    -2.08492     0.79918
O     -0.59687    -2.32826    -0.48374
H     -1.20073    -1.57223    -0.57786
O      1.21347    -1.52140    -2.23466
H      0.59807    -2.02114    -1.65874
O      0.47043    -1.40377    -3.44472
H     -0.29839    -0.89946    -3.12696
O      2.35097    -1.52298     0.48107
H      2.24760    -0.58535     0.19680
O      3.20457    -1.35111     1.60096
H      3.81371    -2.08543     1.49085
O     -1.77108    -0.50786     2.13374
H     -1.25802    -1.26012     1.76598
O     -1.59489    -0.64930     3.54485
H     -0.62515    -0.65553     3.58936
O     -0.15234     3.18978    -1.62195
H      0.52609     2.49050    -1.74344
O     -1.19960     2.69946    -2.45649
H     -1.17968     3.30375    -3.20498
O      1.23514     0.90699     2.81656
H      0.37841     1.16298     2.44741
O      1.05805    -0.49809     2.96797
H      1.87717    -0.84478     2.57363
O     -1.28983     0.07119    -2.10236
H     -1.30202     1.03148    -2.31432
O     -2.54986    -0.15267    -1.47964
H     -2.55297     0.53098    -0.78222
