 36
-1364.9792248737267
O      0.75265     2.64975    -0.25626
H      1.25163     3.24890     0.31194
O     -0.53742     3.23945    -0.31334
H     -1.05375     2.58162     0.17989
O     -1.98164    -0.77819     2.40704
H     -1.79615    -1.43086     1.69873
O     -0.67271    -0.38576     2.80964
H     -0.25708    -0.09206     1.97058
O      2.22234    -0.68547    -1.69450
H      2.18549     0.08458    -2.29255
O      0.96321    -1.27478    -2.01801
H      0.79793    -1.86189    -1.24758
O     -1.00762     0.55724    -1.92783
H     -0.25570    -0.06068    -2.04286
O     -2.00171    -0.33633    -1.41519
H     -2.55818     0.27027    -0.89488
O      1.68630     1.33668    -3.30905
H      1.51823     1.45744    -4.24976
O      2.07558     2.63942    -2.87499
H      1.37276     2.80349    -2.22988
O      0.68222     0.13163     0.56630
H      0.74381     0.98964     0.09683
O      2.05483    -0.16462     0.85119
H      2.32035    -0.47959    -0.04408
O     -2.50967     1.60721     1.37087
H     -2.38351     0.78584     1.90946
O     -3.40709     1.14117     0.36274
H     -4.25616     1.46491     0.67679
O      2.11897    -2.30609     2.55807
H      2.09855    -1.55785     1.93462
O      0.74883    -2.71983     2.58744
H      0.28489    -1.95556     2.98070
O     -1.27070    -2.23539     0.27692
H     -1.40668    -1.56665    -0.43147
O      0.06672    -2.69566     0.02666
H      0.41084    -2.80933     0.94457
