 36
-1364.9726092279914
O      2.26730     1.10624    -1.01787
H      1.72486     1.86737    -1.29986
O      2.58579     1.45476     0.33870
H      2.70023     0.57443     0.74388
O      0.78396    -3.63957     1.04667
H      0.45973    -3.27149     1.88321
O     -0.42325    -3.69637     0.28389
H     -0.24178    -3.04854    -0.41248
O      0.39113     2.62255     1.20638
H      1.31154     2.32793     1.00026
O     -0.17876     1.40339     1.66802
H     -0.36997     0.93502     0.83616
O     -2.84566    -0.01995     0.80861
H     -3.39203    -0.11064     1.59536
O     -2.31883    -1.34608     0.70050
H     -2.03807    -1.35918    -0.22302
O     -1.75924     0.83865    -2.99888
H     -1.67750     1.40286    -2.20981
O     -0.75546     1.42457    -3.83884
H     -1.29045     1.82835    -4.53057
O      2.14802    -1.50929     0.23716
H      1.80033    -2.40323     0.45495
O      2.35808    -0.94726     1.53900
H      1.46047    -0.95823     1.90438
O     -0.65230     2.87346    -1.25036
H     -0.30512     2.94525    -0.33447
O      0.56163     2.98183    -2.02107
H      0.26713     2.51143    -2.81828
O     -0.43732    -1.50691     2.61382
H     -1.12594    -1.56218     1.92103
O     -0.98510    -0.49934     3.46880
H     -0.78627     0.30298     2.95480
O     -0.19271    -0.33577    -0.82008
H      0.78614    -0.38864    -0.79157
O     -0.55748    -1.38376    -1.72537
H     -0.84356    -0.84162    -2.47972
