 24
-909.9750436526197
O     -1.66818    -1.86148     1.34905
H     -2.34112    -2.51167     1.12501
O     -2.42646    -0.87188     2.05139
H     -2.15323    -0.07663     1.54778
O      0.53117    -1.77511    -1.95582
H      1.32193    -1.26222    -1.72943
O     -0.49139    -1.00382    -1.33534
H     -0.50384    -1.32922    -0.41579
O      2.22025     1.06507    -0.22841
H      1.63200     1.58309    -0.80023
O      2.81848     0.19734    -1.19318
H      3.64087    -0.02319    -0.74923
O      0.20830     1.35231    -2.27334
H     -0.13412     0.46998    -1.99295
O     -0.77709     2.22233    -1.71415
H     -1.28966     2.48354    -2.48493
O      1.23811    -1.13194     0.96683
H      1.56883    -0.28752     0.61138
O      0.58509    -0.69164     2.17123
H     -0.21011    -1.25113     2.14379
O     -0.38253     1.74570     1.47327
H      0.00665     0.92145     1.82540
O     -1.43365     1.19825     0.66648
H     -1.21319     1.57441    -0.20684
