 24
-909.9719582916396
O     -2.27184    -1.22941     1.00905
H     -2.10684    -1.62649     0.14276
O     -2.53927     0.14154     0.65029
H     -2.16221     0.58060     1.43784
O      0.47336     1.75455    -2.28729
H      0.02987     2.50901    -2.68728
O     -0.50027     1.33522    -1.33148
H      0.02602     1.38613    -0.50315
O      2.12852    -0.40368    -2.47629
H      1.59831     0.39658    -2.61861
O      3.11467     0.11644    -1.58228
H      3.90978    -0.31800    -1.90384
O      0.42727    -1.70668    -0.79984
H      1.09439    -1.47434    -1.47100
O     -0.79582    -1.40079    -1.48051
H     -0.82401    -0.43007    -1.41842
O     -1.39621    -0.37501     3.74543
H     -1.80798    -0.97933     3.11151
O     -1.16103     0.75765     2.90538
H     -0.29458     0.53802     2.51351
O      1.25857     1.05758     0.62465
H      2.03802     0.75044     0.13934
O      0.87768    -0.12563     1.34126
H      0.53272    -0.71425     0.63390
