 32
-1213.3061523154122
O      0.14081     2.52486    -2.26320
H      0.85679     1.88354    -2.44815
O      0.76699     3.45484    -1.38333
H      0.95218     2.92623    -0.59301
O     -0.25722    -2.19193     1.13083
H     -0.10664    -1.29574     1.48867
O      0.20284    -2.09082    -0.21856
H      1.14925    -2.29834    -0.12501
O     -1.33245     1.11684    -0.56823
H     -0.97434     1.81603    -1.16714
O     -1.62369     0.06921    -1.51049
H     -2.14556    -0.53906    -0.96529
O      1.12798     0.45041     0.88772
H      0.68909     0.47876     0.01559
O      0.93515     1.76370     1.39572
H      0.13499     1.64445     1.93658
O      2.93520    -1.47149     0.55117
H      2.45019    -0.66052     0.78994
O      3.56301    -1.07669    -0.66753
H      4.47752    -0.93335    -0.40557
O      1.75580     0.46068    -1.92524
H      2.43619    -0.11593    -1.51754
O      1.11847    -0.41469    -2.85203
H      0.20903    -0.40106    -2.51672
O     -1.84658     1.16660     2.41277
H     -1.92424     1.07139     1.44993
O     -1.51952    -0.15840     2.81735
H     -2.28209    -0.67234     2.48687
O     -3.44756    -1.47751     1.49148
H     -3.96174    -2.23602     1.78777
O     -2.77173    -1.99917     0.34760
H     -1.87967    -2.21568     0.70486
