 32
-1213.3154432734384
O      2.52627     1.65779     1.41902
H      2.73912     2.01293     0.54951
O      2.55365     0.26873     1.11241
H      1.82292    -0.07435     1.64983
O     -1.53619    -2.17294    -0.37910
H     -0.87393    -2.61565     0.19495
O     -0.65519    -1.54565    -1.30988
H     -0.87031    -0.59747    -1.22101
O     -0.17768     1.47053     0.03240
H      0.70662     1.50617    -0.39778
O     -0.93800     1.10491    -1.13373
H     -1.81058     1.47757    -0.89950
O     -1.31041    -0.06539     1.95406
H     -0.94571     0.60252     1.34037
O     -2.55893    -0.40647     1.34272
H     -2.26990    -1.07781     0.68911
O      1.91393     1.31692    -1.55981
H      2.14518     0.36370    -1.62895
O      1.47794     1.60244    -2.88818
H      0.52446     1.67273    -2.74956
O      2.53300    -1.97125    -0.38306
H      2.81149    -1.19925     0.13759
O      2.01186    -1.33694    -1.55050
H      1.05894    -1.55421    -1.49953
O      0.73499    -1.76150     2.01651
H     -0.14959    -1.34432     2.04988
O      0.51588    -2.86833     1.13599
H      1.30099    -2.77583     0.56570
O     -3.37459     1.69765    -0.16307
H     -3.33017     1.02651     0.54697
O     -3.52080     2.90614     0.57231
H     -4.37928     3.20411     0.26115
