 36
-1364.9815302675636
O      0.99765     1.91239     2.64148
H      1.42054     2.55837     2.04804
O      1.69573     0.73817     2.19808
H      1.03604     0.03524     2.34472
O      0.10016    -1.41227     2.23443
H      0.55936    -2.01274     1.61851
O     -1.15381    -1.23954     1.58275
H     -1.27407    -0.26104     1.58329
O      1.29312     3.14809    -0.57720
H      0.45478     2.86889    -0.16069
O      2.22331     2.98767     0.49554
H      2.61875     2.13779     0.23058
O      1.42246    -2.87170     0.31611
H      0.74551    -2.98445    -0.39263
O      2.37593    -2.05225    -0.34666
H      3.15353    -2.61775    -0.35183
O     -1.36684     1.43879     1.58276
H     -0.61110     1.71959     2.14841
O     -0.96839     1.99716     0.32744
H     -0.86728     1.21085    -0.24493
O     -3.16403    -0.31033    -0.57833
H     -3.94163    -0.08452    -0.05452
O     -3.64685    -1.37746    -1.41284
H     -3.07415    -2.10237    -1.09983
O      1.94272     0.98620    -1.98699
H      1.75080     1.93077    -1.80762
O      2.61333     0.67951    -0.75771
H      2.35398    -0.24349    -0.60019
O     -1.35745     0.93511    -2.37276
H     -2.21601     0.63807    -2.03945
O     -0.52429     0.12701    -1.54601
H      0.37416     0.34618    -1.89239
O     -0.59470    -2.57929    -1.35042
H     -0.72753    -1.61854    -1.48062
O     -1.60389    -2.93648    -0.40787
H     -1.42342    -2.33119     0.34334
