 36
-1364.9735587564048
O      1.43366     2.62010     1.73503
H      1.67310     2.95629     2.60322
O      0.22756     3.32469     1.43673
H     -0.45237     2.65379     1.67412
O     -0.72961    -1.16256     2.42669
H      0.08896    -1.16342     1.90057
O     -1.56199    -2.07520     1.69904
H     -1.08614    -2.92035     1.83825
O      2.18819    -0.63248     1.00434
H      2.57938    -0.62743     0.11798
O      1.05498     0.19804     0.75949
H      1.31812     1.06677     1.13014
O      0.79428     3.31110    -1.60735
H      0.62373     3.62253    -0.70872
O      0.47085     1.93450    -1.43936
H     -0.28051     1.77800    -2.06269
O     -1.67831     0.88831    -2.61462
H     -1.78508     0.04210    -2.15020
O     -2.73643     1.68959    -2.07960
H     -2.52640     1.66476    -1.13008
O     -1.74143     1.22151     0.38342
H     -0.83043     1.06903     0.06379
O     -1.52282     1.33259     1.78039
H     -1.32684     0.40417     2.05277
O      2.55394     0.33024    -1.67429
H      1.84469     1.00717    -1.56574
O      1.85460    -0.63684    -2.46007
H      2.26142    -0.53750    -3.32673
O      0.21458    -2.09443    -0.86666
H      0.72942    -1.49681    -1.44079
O     -1.10119    -1.52050    -0.92292
H     -1.38122    -1.63082     0.00904
O      0.25579    -4.01397     1.76016
H      0.29969    -4.86966     2.19593
O     -0.19904    -4.39429     0.45456
H      0.06178    -3.59364    -0.04095
