 32
-1213.3136992251589
O      2.54765     0.64354     0.92773
H      3.03635     0.20141     0.20133
O      1.70127     1.52811     0.18977
H      0.85538     1.50642     0.69461
O     -0.07446    -1.38852    -0.16327
H      0.15512    -1.72183     0.72321
O     -1.49991    -1.50364    -0.21436
H     -1.70044    -0.82391    -0.88353
O     -1.76466     0.54855    -1.95204
H     -0.87130     0.84716    -2.23511
O     -2.16634     1.58182    -1.03980
H     -3.03221     1.21502    -0.76431
O     -0.73002     1.62338     1.22155
H     -1.26269     1.69096     0.40234
O     -1.32194     0.47233     1.83659
H     -0.52145     0.02003     2.15299
O      1.12807    -0.38882    -2.29167
H      0.62426    -0.72930    -1.51742
O      0.82820     1.00605    -2.28132
H      1.23155     1.28521    -1.43535
O      3.60430    -0.52663    -1.25701
H      2.82049    -0.54421    -1.84743
O      3.76298    -1.90533    -0.93029
H      4.62557    -2.08597    -1.31590
O      1.17036    -2.05981     2.12566
H      1.08480    -2.54848     2.94813
O      0.99257    -0.72315     2.57633
H      1.69354    -0.26513     2.06336
O     -3.95876     0.90752     1.24427
H     -3.09528     0.52118     1.45798
O     -4.20974     0.25464     0.00038
H     -5.17151     0.22104    -0.01185
