 40
-1516.6354050283073
O      2.93245    -0.37939    -0.98000
H      3.12338    -0.52902    -0.03986
O      2.20173     0.85093    -0.91418
H      1.75333     0.87115    -1.77343
O     -3.91054    -1.16674    -2.21869
H     -4.59663    -0.70862    -2.71651
O     -2.76913    -1.06217    -3.07002
H     -2.30079    -0.28921    -2.69373
O      2.24648     3.37397     1.49192
H      1.33347     3.62962     1.66252
O      2.12835     1.95834     1.50732
H      2.05061     1.73831     0.55606
O      0.98592    -3.01259     1.24730
H      0.38520    -2.28810     0.97674
O      1.88432    -3.07477     0.13848
H      1.65685    -3.91799    -0.26257
O     -3.07814    -0.38762     0.22750
H     -3.45011    -0.69776    -0.62260
O     -3.60011     0.93501     0.32284
H     -2.82249     1.45444     0.07404
O     -0.24781     0.14864     1.88934
H      0.61971    -0.16105     2.23272
O     -0.53224    -0.85270     0.90983
H     -1.47436    -0.66900     0.67970
O     -1.11337     0.64761    -1.81695
H     -0.49483    -0.08223    -1.57061
O     -0.20178     1.64103    -2.27396
H     -0.27778     2.26432    -1.53776
O      0.40363    -1.46128    -1.68722
H      1.20756    -1.73368    -1.21687
O     -0.45092    -2.60681    -1.57108
H     -1.15368    -2.35654    -2.18633
O      3.17667    -0.44696     1.91024
H      3.02627     0.51286     1.96478
O      2.12200    -0.89672     2.77359
H      2.04669    -1.82374     2.50297
O     -0.96355     3.38293     1.40935
H     -1.80582     3.26220     1.86150
O     -0.95362     2.27618     0.51253
H     -0.61712     1.52586     1.07251
