 32
-1213.3070329756374
O      3.14260    -0.78657     0.55028
H      2.81359    -1.32714    -0.18615
O      2.11322     0.20842     0.57585
H      1.72558     0.06154     1.46717
O      0.01304    -1.66622     0.25799
H      0.49144    -1.02720    -0.30482
O     -1.10261    -2.04563    -0.54313
H     -1.70743    -1.29408    -0.41969
O     -0.53982     1.17605    -0.54959
H      0.14658     1.78552    -0.86535
O     -1.60470     1.41732    -1.48634
H     -2.33642     1.55382    -0.86974
O     -1.17897     1.83466     1.95699
H     -0.92692     1.51993     1.06889
O     -2.06636     0.78934     2.38190
H     -1.44487     0.18996     2.83350
O      2.14123     2.01727    -1.41037
H      2.38549     1.36627    -0.72305
O      2.16710     1.19537    -2.57838
H      2.92536     1.54021    -3.05858
O      1.82391    -1.38416    -1.95134
H      1.89909    -0.45554    -2.24151
O      0.94135    -1.91903    -2.94098
H      0.24317    -2.28747    -2.38200
O     -0.14448    -1.06957     2.82375
H     -0.11995    -1.34997     1.87751
O      1.13725    -0.45534     2.96494
H      1.61025    -1.10154     3.49940
O     -3.25072    -0.16701     0.19683
H     -2.92495     0.19655     1.05220
O     -4.12423     0.88018    -0.22809
H     -4.57809     0.44478    -0.95481
