 32
-1213.3100428535554
O     -1.57021    -1.77239     1.60107
H     -0.68345    -1.75331     2.01476
O     -1.24207    -2.20876     0.27767
H     -1.31344    -1.37137    -0.23485
O      1.75573    -1.74532    -0.24650
H      1.44783    -1.63782    -1.16796
O      1.27754    -3.04760     0.09087
H      0.31262    -2.88195     0.15519
O     -1.54823     0.09048    -0.98885
H     -2.21343     0.65315    -0.56072
O     -2.10261    -0.12399    -2.29561
H     -1.28852    -0.03519    -2.80666
O      2.63358     1.10785    -0.01707
H      2.73620     0.15698     0.14446
O      1.23397     1.18515    -0.23204
H      0.84252     0.79424     0.57349
O      0.23843     3.63333     0.03217
H      0.76376     2.84060    -0.18411
O     -1.06405     3.13179    -0.29763
H     -1.52329     3.92392    -0.59315
O      1.07599    -1.21997    -2.77992
H      1.69992    -1.31758    -3.50596
O      0.61190     0.11517    -2.94885
H      0.87650     0.50475    -2.09876
O      1.18949    -0.04325     2.47142
H      0.34210     0.33829     2.73850
O      0.89001    -1.44242     2.56996
H      1.42663    -1.80276     1.84857
O     -1.03614     1.39683     1.67343
H     -1.10544     2.14045     1.03794
O     -2.33936     0.81164     1.56862
H     -2.12976    -0.14010     1.65057
