 32
-1213.3053235451987
O      2.04953    -0.27766     2.12301
H      2.24870     0.24750     1.31113
O      3.26039    -0.18368     2.86746
H      3.05110     0.54785     3.45451
O     -0.83823    -2.03840    -1.90434
H     -1.81117    -2.01588    -1.79105
O     -0.61333    -0.91189    -2.74871
H     -0.92934    -0.18434    -2.18820
O     -3.40708    -0.72683    -0.26809
H     -2.64491    -1.08942     0.23373
O     -3.41976    -1.59422    -1.39790
H     -4.19334    -2.14178    -1.23197
O      0.91620     4.17827     0.97503
H      0.92640     5.06348     0.59960
O      0.87295     3.38804    -0.21152
H     -0.02619     2.99216    -0.16236
O      1.21412     0.37564    -0.60009
H      1.61058    -0.36499    -1.08004
O      2.36081     1.09420    -0.12764
H      2.02471     2.01023    -0.20925
O     -0.83423    -0.21171     1.64781
H      0.07499    -0.37835     1.94409
O     -1.20210    -1.46136     1.05266
H     -0.35029    -1.82835     0.71898
O     -1.77854     1.37590    -1.12514
H     -2.62182     0.95582    -0.88683
O     -1.35970     1.93549     0.12468
H     -1.11427     1.14431     0.64765
O      1.18157    -2.51591     0.51695
H      1.91653    -2.08602     0.97586
O      1.60476    -2.46123    -0.84873
H      0.73214    -2.43416    -1.28791
