 20
-758.3011740019884
O      0.70750    -1.96569     1.08987
H      1.59812    -1.70498     0.81839
O     -0.04758    -1.02047     0.31710
H     -0.59193    -1.57585    -0.26951
O      3.84975     0.15524     0.89290
H      4.61331     0.24349     0.31320
O      2.85652    -0.30779    -0.02355
H      2.25222     0.45297    -0.06372
O     -2.63036     0.55199     1.01888
H     -3.17345     1.28167     1.33273
O     -1.33024     0.96635     1.47608
H     -0.82753     0.16171     1.22464
O     -2.05884    -1.73659    -1.33485
H     -1.98902    -2.01284    -2.25303
O     -2.12710    -0.31884    -1.48676
H     -2.42185    -0.04896    -0.59719
O     -0.05223     1.87015    -1.54613
H     -0.48198     1.00394    -1.56230
O      0.73500     1.78546    -0.35792
H      0.08245     1.94090     0.34183
