 32
-1213.3069815266174
O      2.63386    -0.35020     1.88093
H      2.55456    -0.73255     0.99025
O      1.27258    -0.08201     2.22336
H      0.79380    -0.86486     1.87611
O     -3.24294    -0.88687    -0.82504
H     -2.70278    -1.35782    -0.16268
O     -2.68503     0.42460    -0.72996
H     -2.97856     0.73812     0.14036
O      1.96360    -1.01162    -2.25209
H      1.04529    -0.99513    -2.56065
O      1.78671    -0.81345    -0.85504
H      1.28179     0.02491    -0.83823
O     -0.04458     1.03671    -0.79546
H     -0.98726     0.77680    -0.86651
O     -0.05256     2.00446     0.25664
H      0.90221     2.06624     0.47669
O      3.43980     2.07193    -0.22223
H      3.93985     2.88652    -0.13459
O      2.57454     2.17333     0.90161
H      2.79927     1.36869     1.41190
O     -0.64569    -0.83681    -3.16335
H     -0.70217    -0.90801    -4.12348
O     -1.29626    -2.02603    -2.72502
H     -2.11379    -1.65634    -2.35363
O     -0.09829    -2.00403     1.00144
H      0.14684    -1.80534     0.08198
O     -1.48759    -1.70657     1.04767
H     -1.49639    -0.93740     1.65182
O     -1.71190     0.43305     2.57759
H     -1.27962     0.79662     3.35824
O     -2.12090     1.58253     1.84687
H     -1.31025     1.78992     1.32881
