 32
-1213.3118072976963
O      2.24313    -1.24670     1.58216
H      2.28483    -1.45131     0.61203
O      1.60751    -2.41901     2.08463
H      2.07906    -2.53387     2.91268
O      2.14127    -1.17125    -1.02526
H      1.41953    -0.86988    -1.62234
O      3.14880    -0.17493    -1.19443
H      2.88947     0.48146    -0.52323
O     -3.29977    -0.05539    -0.42965
H     -2.75621    -0.40882    -1.15879
O     -3.84974    -1.22879     0.16190
H     -3.09982    -1.59764     0.65024
O      0.51132     2.80700    -1.46586
H      0.31347     3.69641    -1.77747
O     -0.74360     2.14854    -1.62454
H     -1.05017     2.11229    -0.68847
O      2.14324     1.77136     0.40199
H      1.49634     2.12524    -0.23685
O      1.29462     1.28716     1.44149
H      1.60699     0.36540     1.55083
O     -0.00130    -0.34400    -2.47832
H     -0.29810     0.58093    -2.40943
O     -1.15277    -1.05850    -1.99442
H     -0.80682    -1.33027    -1.11345
O     -0.29943    -1.23947     0.46675
H     -0.56418    -0.39866     0.90217
O     -0.95525    -2.17996     1.32509
H     -0.15660    -2.50562     1.76518
O     -1.16643     2.10008     0.99609
H     -0.24618     2.03466     1.32040
O     -1.62759     0.81704     1.42695
H     -2.38308     0.65485     0.81476
