 32
-1213.3056623737448
O      2.26497     0.16269     1.33769
H      2.24454    -0.30329     0.48724
O      2.46668     1.51460     0.91801
H      1.68791     1.95303     1.29767
O     -0.91849    -3.09115    -1.47820
H     -1.70715    -3.05270    -2.02894
O     -1.39432    -2.45447    -0.28944
H     -0.55622    -2.25159     0.16213
O     -0.55908     1.03976    -2.37524
H      0.34158     1.43293    -2.36941
O     -0.72265     0.91647    -0.96279
H     -1.63214     0.58595    -0.85092
O     -0.22558     2.31750     1.29536
H     -0.44064     1.87984     0.45420
O     -1.28422     1.86254     2.13680
H     -0.85461     1.14291     2.63440
O      1.91915     1.86252    -1.93363
H      2.35952     1.83912    -1.06900
O      2.76245     1.06115    -2.76398
H      2.32697     0.19830    -2.72027
O      1.25166    -1.67084    -2.11392
H      0.58906    -2.37780    -2.14303
O      0.96510    -1.15951    -0.81291
H      0.33453    -0.43277    -0.99665
O     -0.68797    -0.59481     3.07146
H     -1.58516    -0.91449     2.90655
O      0.00334    -1.26006     2.00744
H      0.83035    -0.75171     1.97194
O     -2.94066     0.29111     0.66596
H     -2.51944     0.91771     1.28665
O     -2.90606    -0.92790     1.42129
H     -2.51522    -1.53581     0.77505
