 36
-1364.9797081270217
O      0.45608     3.64751     1.00432
H      0.15942     3.49786     0.08388
O      1.80056     3.17833     0.94422
H      2.30036     3.99689     0.86962
O     -2.15930    -1.57467     2.21396
H     -1.19627    -1.71322     2.31713
O     -2.36195    -2.20844     0.94544
H     -2.42000    -1.42687     0.35711
O      2.44732    -1.33343    -2.94831
H      2.42535    -0.82095    -2.10880
O      2.59193    -2.67075    -2.45971
H      3.53850    -2.82135    -2.53326
O     -0.33684    -2.70182    -1.06013
H     -0.94881    -2.93235    -0.34303
O      0.92961    -2.81139    -0.40335
H      1.54231    -2.82709    -1.17579
O      2.38600    -0.01290    -0.61111
H      1.78963    -0.30408     0.11773
O      1.77113     1.22541    -0.97110
H      1.94534     1.77687    -0.19274
O     -0.97012     1.35981     2.25801
H     -0.80451     2.23462     1.87259
O     -2.32401     1.10102     1.87526
H     -2.39276     0.15365     2.11810
O     -1.97703     2.55743    -0.88014
H     -2.43910     2.46366    -1.71997
O     -0.62341     2.73865    -1.28747
H     -0.28540     1.82524    -1.33538
O      0.79351    -0.42465     1.40005
H      0.09531     0.17549     1.75396
O      0.47644    -1.70190     1.95622
H      0.71032    -2.23625     1.17470
O     -1.01723    -0.08862    -1.38534
H     -0.68736    -1.00229    -1.29255
O     -2.27662    -0.16361    -0.70714
H     -2.23850     0.64120    -0.16605
