 32
-1213.3090536358982
O      2.69900    -0.42671     1.81228
H      1.95398    -0.97853     1.52302
O      3.06395     0.17873     0.57443
H      3.93198    -0.19824     0.39520
O      0.90319    -2.39859    -2.35812
H      1.11268    -1.53807    -1.94736
O     -0.28246    -2.72165    -1.62639
H     -0.96055    -2.17809    -2.06543
O     -2.33860    -1.19760    -2.54957
H     -2.88359    -1.33412    -3.32947
O     -1.99162     0.17787    -2.67925
H     -2.19936     0.50577    -1.78205
O     -2.03397     1.06546     2.55087
H     -2.74657     0.83023     3.15507
O     -0.92662     0.34313     3.08919
H     -0.85950    -0.39152     2.43703
O      0.97479    -0.12069    -1.08015
H      1.71156     0.21595    -0.52978
O      0.86796     0.83229    -2.13325
H     -0.03180     0.63118    -2.42955
O     -0.80040    -1.35600     1.07916
H     -0.70824    -0.70681     0.35855
O      0.36431    -2.15728     0.87808
H      0.20014    -2.50390    -0.03740
O      1.91290     2.81558     1.65973
H      2.70254     2.31497     1.41685
O      0.91370     1.82059     1.44230
H      0.68066     1.51407     2.33433
O     -1.35594     2.30513    -0.47535
H     -0.48593     2.23157    -0.05011
O     -1.94453     1.05842    -0.11949
H     -2.02850     1.14045     0.85858
