 16
-606.625506575601
O     -2.63007     0.09782     0.53060
H     -2.02787    -0.65526     0.49804
O     -1.79096     1.07086     1.16543
H     -1.95671     1.84214     0.61683
O      0.63666     0.22860    -0.13407
H      0.08911     0.59941     0.57230
O      1.28414    -0.85533     0.54065
H      0.79697    -1.60239     0.17437
O      2.49734     3.15971    -1.57339
H      3.45352     3.20096    -1.47011
O      2.07786     2.75821    -0.25942
H      1.81013     1.84332    -0.42077
O     -1.70668    -2.67186     0.33109
H     -2.25888    -2.97576    -0.39653
O     -0.42979    -3.17413    -0.05949
H     -0.24658    -3.77682     0.66831
