 40
-1516.6413787005206
O      1.93617     1.88574    -3.15678
H      1.64981     2.15168    -2.27012
O      2.27665     0.51648    -2.96585
H      2.86107     0.53882    -2.17705
O      0.88092    -0.01748     0.51903
H      0.71282    -0.69569    -0.18081
O      1.94804    -0.58026     1.29234
H      1.43422    -0.89320     2.06722
O     -0.53954     1.35398     2.78913
H      0.00695     1.88541     2.18129
O     -1.86780     1.65346     2.35075
H     -2.14466     0.79096     1.99210
O      0.70740    -1.57838     3.44948
H      1.05216    -1.62714     4.34531
O     -0.63204    -1.14524     3.65926
H     -0.56305    -0.19722     3.39633
O      0.64070     3.12075     1.07695
H     -0.13815     3.57857     0.74449
O      1.17377     2.53690    -0.11254
H      1.06301     1.57752     0.09501
O      4.08808     1.74604     0.04093
H      3.34865     2.36632     0.08540
O      3.45390     0.61539    -0.55744
H      3.04345     0.15943     0.20689
O     -2.38951    -3.32435    -0.91430
H     -2.01027    -2.75313    -0.22390
O     -1.90123    -2.69921    -2.10653
H     -2.58218    -2.02214    -2.26151
O     -2.56825     0.29117    -1.36965
H     -1.67866     0.10008    -1.74267
O     -3.40454    -0.46566    -2.24220
H     -3.76107     0.21040    -2.82622
O     -1.56932    -1.65915     1.03947
H     -1.47741    -1.95676     1.95722
O     -2.62293    -0.69624     1.16378
H     -2.70437    -0.41323     0.23331
O     -0.08564    -0.28780    -2.21567
H      0.73485    -0.00432    -2.69261
O      0.38755    -1.50820    -1.62028
H     -0.37571    -2.10055    -1.83062
