 32
-1213.3100341807205
O      1.18847     1.05056     2.87053
H      2.11353     1.22558     3.06520
O      1.26205    -0.14766     2.10679
H      1.39730     0.21754     1.19371
O      0.25920     0.13246    -3.29291
H      0.92957    -0.08125    -2.61336
O     -0.86284    -0.59989    -2.79884
H     -1.11981    -1.10526    -3.57724
O     -0.31036    -2.87577     2.02841
H     -0.05547    -3.24854     2.87811
O     -0.95858    -1.65758     2.38665
H     -0.22411    -1.01758     2.28302
O     -0.40290     2.54908     1.28437
H      0.15881     2.07961     1.93283
O     -1.70221     2.06034     1.61695
H     -1.71679     1.22666     1.10666
O      1.67903     0.87124    -0.26480
H      1.16660     1.53840    -0.78783
O      2.02296    -0.09780    -1.26650
H      1.81329    -0.94607    -0.79879
O     -1.39225    -0.03259     0.00089
H     -1.44293     0.40956    -0.86343
O     -2.31008    -1.12332    -0.12988
H     -2.18377    -1.52056     0.74235
O      0.46500    -2.83077    -1.25401
H     -0.12482    -2.09788    -1.48307
O      1.16602    -2.30284    -0.13483
H      0.59388    -2.56182     0.62164
O     -1.05038     2.54181    -1.28746
H     -0.86165     2.71749    -0.34162
O      0.29061     2.52446    -1.79781
H      0.15990     2.05683    -2.63582
