 32
-1213.305161370538
O      3.51350     1.50923    -0.96526
H      3.29968     0.56589    -0.90481
O      2.76222     1.99304     0.15993
H      2.16002     2.62577    -0.25723
O      1.79584    -3.48462     0.83434
H      2.06420    -4.25543     0.32694
O      0.73062    -2.99123     0.02618
H      0.14842    -2.60216     0.71502
O     -3.66773     1.03883    -1.58338
H     -4.19677     0.67737    -2.30133
O     -2.51927     1.55279    -2.26868
H     -1.86408     0.86148    -2.05042
O     -0.21924     1.96999     0.23217
H     -1.15325     2.22992     0.25486
O      0.21858     2.42657    -1.05703
H      0.38745     1.57579    -1.49098
O      2.14006    -0.22189     1.50783
H      2.28597     0.68988     1.17166
O      2.68774    -0.96959     0.40775
H      2.52255    -1.88022     0.69809
O      0.49992    -0.60155    -1.71687
H      0.62067    -1.47431    -1.30172
O     -0.83636    -0.29390    -1.34469
H     -0.77038    -0.00195    -0.41850
O     -0.93496    -1.70720     1.65429
H     -1.75881    -1.37068     1.25756
O     -0.41879    -0.47013     2.16811
H      0.51139    -0.45460     1.84932
O     -2.65709     1.13780     1.52387
H     -1.93292     0.84737     2.09616
O     -2.74803    -0.01861     0.68441
H     -3.17452     0.35585    -0.11558
