 40
-1516.6446619932306
O     -2.54962     1.91254    -2.23693
H     -1.84466     2.19756    -1.63048
O     -2.43356     0.49565    -2.08578
H     -1.76922     0.25176    -2.78017
O      1.75653    -2.62767     2.10650
H      2.34760    -3.13451     2.66888
O      2.67874    -1.75310     1.46493
H      2.54486    -1.97050     0.52234
O      0.00657    -0.63993     3.54041
H      0.35806    -1.37393     3.01536
O     -0.94823    -0.06412     2.65781
H     -0.41644     0.59857     2.17868
O     -3.25952     0.76954     0.39572
H     -3.11818     0.58298    -0.55848
O     -3.01975    -0.52781     0.95535
H     -2.33413    -0.33994     1.62349
O     -1.61268    -1.93634    -0.81826
H     -2.34083    -1.60607    -0.25197
O     -0.56640    -1.07725    -0.37022
H     -0.84411    -0.20926    -0.72365
O      1.88769    -0.54739    -2.17024
H      2.23395     0.16844    -1.60771
O      1.86048    -1.65403    -1.25889
H      0.92266    -1.59803    -0.95952
O      2.05026     2.44632    -0.02630
H      1.97846     2.02966     0.86463
O      2.86941     1.46559    -0.65314
H      3.68385     1.95437    -0.79918
O     -1.05103     2.23020     0.84721
H     -1.96760     1.89741     0.76518
O     -0.58801     1.92953    -0.47460
H      0.30989     2.30846    -0.46778
O      1.72996     0.76626     1.91541
H      2.19628    -0.07422     1.74630
O      2.07327     1.04939     3.26540
H      1.38421     0.51017     3.68809
O     -0.94734    -1.72862    -3.85785
H     -1.28115    -1.98340    -2.98444
O     -0.45405    -0.41542    -3.58876
H      0.42981    -0.57463    -3.19346
