 36
-1364.9723773766575
O      3.51112     0.56019     1.20132
H      4.44056     0.75450     1.04027
O      3.53518    -0.15210     2.44019
H      3.09851     0.49860     3.01051
O     -3.23701     1.22240    -0.01614
H     -3.58447     1.50041    -0.86806
O     -2.65116    -0.03030    -0.37900
H     -2.74489    -0.54746     0.43542
O      0.61059     1.23222     3.82568
H      0.08252     1.93993     4.20657
O      1.70379     1.94057     3.24538
H      1.41694     2.06344     2.31443
O     -0.87360    -1.92692    -3.91164
H     -0.94488    -1.05427    -3.49954
O     -1.90657    -2.62121    -3.19716
H     -2.15344    -3.29011    -3.84089
O      1.95391    -0.66468    -0.62792
H      2.52285    -0.33686     0.09496
O      1.68834     0.56995    -1.31331
H      0.82621     0.39930    -1.75858
O     -0.78244    -0.06076     1.85737
H     -0.27838    -0.00284     2.68761
O     -1.37934    -1.35599     1.92535
H     -0.96878    -1.75814     1.12600
O     -0.95254     1.77274    -2.18254
H     -0.76999     1.99265    -1.24380
O     -0.76929     0.36786    -2.20570
H     -1.43525     0.07106    -1.54600
O      1.06062     2.28275     0.62115
H      1.41584     1.76116    -0.13171
O     -0.34233     2.14564     0.40704
H     -0.54523     1.31290     0.88301
O     -0.38792    -1.93967    -0.42661
H      0.54268    -1.67333    -0.58795
O     -0.44675    -3.28858    -0.89452
H     -0.97195    -3.14262    -1.69473
