 40
-1516.6359580685228
O      3.12865     1.44368    -0.06024
H      2.74919     0.57915     0.20441
O      4.53363     1.18616    -0.01252
H      4.76071     1.27501    -0.94216
O      0.78673    -1.19370    -0.25473
H      0.62814    -0.38264    -0.78761
O      1.57757    -0.64371     0.80700
H      0.88427    -0.16935     1.32131
O     -0.09117     3.57665     0.07038
H     -0.72460     4.27376    -0.12737
O     -0.37103     3.30427     1.44448
H      0.52425     3.37793     1.83628
O     -0.70249     1.42204    -2.18525
H     -1.52011     1.23209    -1.67411
O      0.26552     1.21067    -1.15170
H      0.24620     2.07398    -0.68465
O     -1.08457     0.39835     2.99233
H     -1.45088    -0.48478     2.85169
O     -0.57351     0.61504     1.67762
H     -0.64684     1.58410     1.58925
O      1.86066     1.60292     2.85492
H      2.35161     1.61584     3.68394
O      2.16341     2.89260     2.30008
H      2.66078     2.63552     1.50436
O     -3.11143    -0.66557    -1.13051
H     -2.45460    -0.91062    -1.82239
O     -2.53410     0.48957    -0.52624
H     -2.06710     0.10502     0.23594
O     -1.46540    -1.89849     0.98298
H     -0.63694    -1.81779     0.46130
O     -2.25003    -2.84674     0.24602
H     -2.83574    -2.23624    -0.23645
O     -0.25557    -4.85053    -0.72874
H     -1.04909    -4.56735    -0.25008
O     -0.06792    -3.73485    -1.59685
H      0.57295    -3.17807    -1.12442
O     -1.40263    -1.74888    -2.82057
H     -1.06184    -2.58321    -2.44469
O     -0.16793    -1.08646    -3.12536
H     -0.40074    -0.15074    -2.99177
