 32
-1213.3101812881685
O     -1.95596    -1.75998     1.67346
H     -1.74179    -2.30150     0.88871
O     -0.75719    -1.90671     2.44550
H     -0.54982    -0.97855     2.63808
O      1.77488    -1.50635     0.56628
H      1.70264    -0.80775     1.23440
O      2.43711    -0.82237    -0.50456
H      1.82457    -0.06528    -0.62780
O     -1.97558     0.70967     0.67252
H     -2.11075    -0.15871     1.12128
O     -2.54382     0.48989    -0.61891
H     -2.12916    -0.34997    -0.88982
O      0.60357     1.06906    -0.67921
H     -0.36496     0.92215    -0.69972
O      0.85948     1.92663    -1.79773
H      0.70124     2.77528    -1.35423
O     -0.32758     3.65051    -0.08563
H     -0.40039     4.57904     0.15286
O     -0.37890     3.02639     1.19242
H     -1.13457     2.42610     1.06835
O      1.48523    -0.62356    -3.59096
H      1.15209     0.06043    -2.99180
O      1.26431    -1.82163    -2.84301
H      2.01412    -1.83639    -2.22044
O     -0.81646    -2.64054    -0.62584
H      0.06081    -2.40002    -0.28741
O     -1.03931    -1.58876    -1.56931
H     -0.26394    -1.68475    -2.17924
O      1.26141     0.90905     2.37211
H      1.01984     1.72458     1.89906
O      0.05213     0.64282     3.07907
H      0.33138     0.75802     3.99477
