 12
-454.9693978616598
O     -2.30833     0.36135    -1.75816
H     -1.35028     0.40125    -1.62098
O     -2.75907     0.31000    -0.39617
H     -3.14457     1.18531    -0.28192
O      2.44578    -1.24164     0.61888
H      2.16082    -1.38953     1.52712
O      3.02013     0.07233     0.68956
H      2.27912     0.61924     0.39103
O      0.31848     0.09477    -0.39604
H      0.76857    -0.75872    -0.32896
O     -0.32061     0.14567     0.89205
H     -1.24279     0.02256     0.61430
