 36
-1364.9729759860052
O      2.79369    -1.92405    -0.00953
H      2.05138    -2.36955     0.44023
O      2.11800    -0.74455    -0.43238
H      2.02518    -0.22046     0.37757
O     -0.52903    -1.09414    -1.87766
H      0.03631    -0.41093    -2.29733
O     -1.39755    -0.28344    -1.08183
H     -0.81527     0.01275    -0.34987
O     -1.20343    -1.62666     3.44350
H     -1.14840    -1.50168     4.39564
O     -1.62260    -0.32978     3.02300
H     -2.40965    -0.55457     2.48828
O      0.90968     0.92718    -2.91019
H      0.43182     1.70673    -2.53406
O      2.20613     1.07705    -2.32492
H      2.27040     0.26348    -1.78499
O      0.46118    -2.49054     1.16959
H     -0.29599    -2.39889     1.76863
O     -0.05511    -3.30341     0.11875
H     -0.01591    -2.67884    -0.61915
O     -0.02312     0.63321     1.03094
H     -0.47648     0.36057     1.85477
O     -0.19551     2.05064     1.05990
H      0.73228     2.33369     1.05367
O     -0.51420     2.64528    -1.57429
H     -0.62577     2.49152    -0.61552
O     -1.73049     2.14862    -2.13273
H     -1.71122     1.20985    -1.86202
O      2.29993     2.76989    -0.23456
H      2.25430     2.26068    -1.07652
O      3.15474     1.93539     0.55132
H      4.02062     2.32537     0.40105
O     -3.45500    -0.83761     1.12614
H     -4.38939    -1.03021     1.00614
O     -2.83568    -1.95595     0.47189
H     -2.41758    -1.50332    -0.28724
