 36
-1364.9720015048172
O      0.31305     2.08146     0.58750
H     -0.56293     1.67303     0.77566
O      0.50278     2.98280     1.67305
H      0.83656     2.36032     2.33500
O      0.13664    -2.14675     2.08840
H      0.05142    -2.71651     1.30550
O     -1.22957    -2.01142     2.48445
H     -1.54711    -1.37165     1.81715
O     -0.35042    -3.55512    -1.60891
H     -0.24790    -2.63941    -1.90819
O     -0.61063    -3.37143    -0.21964
H     -1.56951    -3.46323    -0.15582
O     -2.01863     0.78718     0.69404
H     -2.58547     1.10805    -0.03407
O     -1.77172    -0.56638     0.29162
H     -0.88274    -0.48774    -0.12979
O      1.29114     0.22971     2.61216
H      0.88231    -0.65745     2.51463
O      2.28973     0.21263     1.57536
H      1.81980     0.68407     0.87100
O     -3.01323     1.90351    -1.56717
H     -3.88234     2.27428    -1.74423
O     -2.32102     3.04473    -1.06346
H     -1.53514     3.04794    -1.63953
O      0.91359     2.30739    -2.00932
H      0.68243     2.30126    -1.05453
O     -0.05392     3.20631    -2.54036
H      0.43885     4.03154    -2.58572
O      2.22580    -2.34179    -0.35489
H      2.27667    -3.27711    -0.58413
O      2.93459    -2.29842     0.89182
H      2.73062    -1.37989     1.16768
O      0.42026    -0.50310    -2.32074
H      0.67854     0.39277    -2.58911
O      0.58798    -0.36846    -0.90565
H      1.24718    -1.08137    -0.72032
