 40
-1516.6482785285928
O      1.71529     1.96842    -1.24363
H      1.50166     1.32534    -1.94855
O      2.68045     1.25857    -0.46022
H      2.44082     1.52002     0.44808
O      0.63829    -0.57047     0.67242
H      0.16419     0.25186     0.40565
O      0.30616    -0.66387     2.05523
H     -0.66562    -0.85197     1.97472
O      0.69919     0.16176    -2.97628
H     -0.26854     0.11348    -2.82847
O      1.02918    -1.21606    -3.16349
H      1.91967    -1.24816    -2.76962
O     -1.87738     0.24267    -2.21145
H     -1.86819     1.06816    -1.68468
O     -2.35494    -0.69604    -1.24743
H     -1.83323    -1.49514    -1.46768
O     -0.41052     1.80519     0.22091
H      0.34118     2.18206    -0.28592
O     -1.53260     2.28941    -0.52216
H     -2.17472     2.29540     0.21713
O      1.10457     2.64247     2.50243
H      1.36146     2.83469     3.40800
O      1.92749     1.52933     2.18528
H      1.32529     0.77023     2.32096
O     -1.88307     2.52922     2.80602
H     -1.04220     2.59510     2.32967
O     -2.71314     1.94702     1.80277
H     -2.65280     0.99736     1.99232
O     -2.21080    -0.97344     1.41374
H     -2.38197    -0.82055     0.45761
O     -2.43541    -2.36853     1.55237
H     -1.66185    -2.73136     1.07700
O      2.72642    -2.47078    -0.62193
H      3.46222    -3.08863    -0.69278
O      3.13910    -1.42638    -1.49720
H      3.01393    -0.65350    -0.92586
O     -0.63796    -2.73052    -1.30710
H      0.18311    -2.44579    -1.73698
O     -0.25696    -2.97242     0.04987
H      0.24717    -2.16236     0.28148
