 36
-1364.97451133501
O     -0.59383    -1.22894     0.52524
H      0.30159    -0.81005     0.55708
O     -0.57268    -2.03824     1.70401
H     -1.39069    -1.69777     2.12124
O     -2.75149    -0.91367     2.67945
H     -3.68540    -1.10316     2.81423
O     -2.25071    -0.82232     4.01024
H     -1.59940    -0.11986     3.86906
O     -0.05598     3.09976    -0.31985
H     -0.19989     3.08469     0.64015
O      1.31503     2.69047    -0.35937
H      1.48499     2.61764    -1.33364
O     -0.12624     0.93014     2.95748
H      0.63733     0.64055     2.43269
O     -0.66052     2.00065     2.17185
H     -1.33932     1.54388     1.63617
O      0.96702    -1.28316    -1.90670
H      0.46944    -2.11171    -2.06804
O      0.21374    -0.31534    -2.64371
H     -0.46981    -0.05120    -2.00765
O     -2.20513     0.82332     0.32923
H     -1.80689    -0.06923     0.42047
O     -1.77084     1.16028    -0.98969
H     -1.20274     1.93518    -0.81774
O      2.70248    -0.13103    -0.25951
H      2.22243    -0.67769    -0.90819
O      1.60151     0.24360     0.56871
H      1.45300     1.17150     0.27694
O      1.72418     1.90237    -2.82447
H      1.24928     1.05350    -2.94348
O      3.09835     1.53164    -2.81140
H      3.20951     1.17739    -1.91681
O     -0.49277    -3.49723    -1.96072
H     -0.42990    -4.35958    -2.38000
O      0.12740    -3.73892    -0.69385
H     -0.42397    -3.17423    -0.13827
