 20
-758.3026054974713
O      1.05268    -1.59314    -1.29672
H      0.12434    -1.71747    -1.53853
O      0.98424    -1.88569     0.10762
H      1.89196    -1.65170     0.39250
O      2.57034    -0.15772     1.98853
H      1.98966     0.44191     1.49082
O      3.25927    -0.77279     0.89127
H      4.14932    -0.85897     1.24579
O      0.68830     2.18899    -0.38131
H     -0.25757     2.39392    -0.35363
O      0.71728     0.95803     0.35006
H      0.81027     0.28502    -0.34801
O     -2.01152    -1.21557    -0.96316
H     -2.36657    -0.37264    -1.28391
O     -1.77972    -0.88022     0.41900
H     -0.92290    -1.30990     0.57229
O     -2.41752     1.99344     0.05316
H     -2.13844     1.15965     0.46748
O     -3.03458     1.50856    -1.14524
H     -3.96906     1.55161    -0.91416
