 40
-1516.6506304470438
O      3.03414     0.90380     0.49395
H      2.82382     0.61873    -0.41841
O      2.93816    -0.33284     1.20493
H      2.24635    -0.13435     1.86974
O      0.83790     0.12672     2.84875
H      0.06443    -0.38063     2.49670
O      0.81149    -0.22367     4.23017
H      0.50892     0.60721     4.60346
O      0.87895     3.20432    -0.25843
H     -0.09744     3.22714    -0.20772
O      1.13788     2.67967     1.05231
H      1.89931     2.08054     0.89306
O     -1.59703     2.50232     0.39841
H     -1.75904     1.71492    -0.15883
O     -1.30516     1.90797     1.66633
H     -0.33135     2.01684     1.70394
O     -1.33394    -1.21033     1.99785
H     -1.32547    -1.88577     1.29084
O     -2.49885    -0.44009     1.68233
H     -2.15698     0.46719     1.84024
O      1.08188     1.35031    -2.20840
H      1.22561     2.06886    -1.55701
O      2.24554     0.53258    -2.02216
H      2.05040    -0.21653    -2.59794
O     -1.89343     0.46139    -1.31915
H     -1.41989     0.01699    -2.05549
O     -2.87013    -0.51948    -0.95729
H     -2.84975    -0.45641     0.02385
O      1.41300    -1.77357    -0.41895
H      2.18575    -1.58208     0.14808
O      0.60563    -0.64440    -0.04331
H      0.57248    -0.11901    -0.86004
O     -0.98395    -2.95752    -0.10428
H     -0.06917    -2.72023    -0.34080
O     -1.66215    -2.89727    -1.36339
H     -2.21927    -2.10186    -1.23932
O     -0.65559    -0.67093    -3.40702
H     -1.00476    -0.75695    -4.29987
O      0.04857    -1.90194    -3.22668
H     -0.56206    -2.39216    -2.63352
