 36
-1364.9782177224108
O      1.88701     2.15511    -1.42318
H      1.09936     2.06928    -1.97810
O      1.42470     1.46422    -0.26899
H      2.09140     0.74830    -0.17228
O     -2.64244    -1.19309     0.51146
H     -1.98428    -1.88064     0.75629
O     -1.80852    -0.24735    -0.14963
H     -1.38073     0.24587     0.59187
O     -0.42392    -1.80107    -1.71645
H     -1.02685    -1.22602    -1.18632
O      0.69288    -0.91701    -1.88155
H      0.26540    -0.13364    -2.26653
O     -0.87960     1.44812    -2.32165
H     -1.25534     1.98482    -1.59029
O     -2.04497     0.83709    -2.87737
H     -2.41733     0.42319    -2.08526
O      3.22461    -0.48876    -0.08673
H      3.93147    -0.57763    -0.73546
O      2.56428    -1.74799    -0.15988
H      1.83235    -1.53842    -0.78520
O      0.07074     2.14389     1.87551
H      0.62480     2.06525     1.06838
O     -0.47920     0.82530     1.92219
H      0.24775     0.30802     2.31693
O     -1.55854     3.74757     0.16525
H     -1.30781     3.34667     1.01137
O     -2.29051     2.66871    -0.41227
H     -3.17368     3.03761    -0.53046
O      1.59798    -0.69950     2.94949
H      1.78524    -0.91045     3.86966
O      1.41028    -1.99428     2.40091
H      2.06234    -2.00544     1.68112
O      0.04579    -3.64303     0.19606
H     -0.11962    -3.06951    -0.57791
O     -0.76311    -2.99023     1.18074
H     -0.06829    -2.60221     1.73757
