 36
-1364.974186324201
O      2.52394    -3.20768    -0.93819
H      1.60658    -3.41253    -1.15941
O      2.33403    -1.86084    -0.49663
H      3.22888    -1.50402    -0.51384
O     -0.51711    -2.40428    -2.33840
H     -1.20532    -2.79893    -2.88249
O     -0.39119    -3.31260    -1.24576
H     -1.07678    -2.96087    -0.62982
O      0.47488     2.60409     2.14738
H      0.33191     3.36600     1.55497
O      1.33887     1.82810     1.31052
H      1.07130     0.90958     1.51173
O      0.60132    -2.07197     1.48683
H      1.24126    -2.01129     0.74271
O      0.45317    -0.69269     1.82994
H     -0.48375    -0.54437     1.63512
O      0.05607    -0.13618    -1.12880
H     -0.18884    -0.96312    -1.61065
O     -0.96584     0.78251    -1.50992
H     -0.40273     1.53471    -1.76571
O     -2.12799     1.99620     1.49224
H     -1.35198     2.06907     2.07156
O     -1.96036     0.67378     0.98383
H     -1.64530     0.82911     0.06808
O     -0.12105     4.20291     0.09245
H      0.52238     3.93874    -0.58143
O     -1.32972     3.70114    -0.48217
H     -1.68597     3.16753     0.25193
O      1.51832     2.20601    -1.31680
H      1.58169     2.08154    -0.35012
O      2.28393     1.08906    -1.77653
H      1.66380     0.35955    -1.60411
O     -2.19245    -2.31120     0.39657
H     -2.56382    -1.51313     0.80453
O     -1.85418    -3.14457     1.50973
H     -0.91989    -2.88109     1.63739
