 40
-1516.6383449355578
O      1.27340     2.93648    -0.71636
H      0.32014     2.69916    -0.65292
O      1.53071     3.24048     0.64968
H      1.63685     4.19606     0.63115
O     -0.76689     0.61446     2.02495
H      0.12134     0.61463     2.44474
O     -1.59501     1.16381     3.05195
H     -2.38122     0.62140     2.89891
O      1.79039    -1.85801    -2.95393
H      2.26635    -1.23643    -2.37924
O      1.76165    -3.07605    -2.21622
H      1.26259    -2.82319    -1.42579
O     -3.48454    -0.29540     1.57990
H     -2.84656    -0.70812     0.95671
O     -4.07702     0.71105     0.76642
H     -4.90378     0.30161     0.49578
O      1.75169     0.87446     2.90805
H      2.29511     0.29291     3.44947
O      2.58422     1.04966     1.75727
H      2.22395     1.87330     1.38257
O      2.63670     0.60163    -1.29987
H      2.37475     1.52642    -1.14534
O      1.56660    -0.04185    -0.60776
H      0.82153     0.04697    -1.25342
O     -2.08125     1.43039    -0.89448
H     -2.83338     1.29272    -0.28310
O     -1.17532     2.18080    -0.08237
H     -1.02078     1.59984     0.70477
O     -1.69201    -1.49799     0.06517
H     -0.89612    -1.78960     0.54394
O     -1.84485    -2.51906    -0.92011
H     -1.56052    -2.04617    -1.72914
O      0.94712    -2.62109     0.70415
H      1.21619    -3.49292     1.00801
O      1.87215    -1.76249     1.38317
H      1.92208    -1.01649     0.74025
O     -0.77146    -1.15045    -3.02365
H      0.11536    -1.54006    -3.18129
O     -0.34613     0.09197    -2.44689
H     -1.14580     0.41466    -1.98014
