 24
-909.9819976859093
O     -1.68309    -2.18820     0.04575
H     -2.44961    -2.56764    -0.39171
O     -2.21765    -0.96532     0.54386
H     -1.86951    -0.96939     1.46461
O      0.79291    -1.58408    -0.74833
H     -0.06331    -1.96312    -0.47827
O      0.54916    -1.26184    -2.11814
H     -0.05082    -0.49425    -2.03281
O      2.53050     1.08910    -2.59775
H      2.02830     0.26162    -2.53360
O      1.75111     1.99362    -1.82001
H      2.07783     1.86685    -0.91436
O     -0.72673     1.08645    -1.76774
H      0.11050     1.59542    -1.83320
O     -1.04119     1.28140    -0.38857
H     -1.52043     0.46026    -0.16738
O     -0.77422    -0.75075     2.78577
H      0.07308    -0.40087     2.42227
O     -1.35292     0.39686     3.39987
H     -1.28027     0.16183     4.32915
O      1.36363    -0.01541     1.34346
H      1.29364    -0.50442     0.49826
O      1.27059     1.34987     0.93002
H      0.35897     1.39513     0.57930
