 28
-1061.6485481989555
O      0.17418    -1.28694    -2.32667
H      0.15955    -0.30297    -2.33974
O     -1.22268    -1.57674    -2.22093
H     -1.50345    -1.69407    -3.13519
O      0.06268     1.36214    -2.08086
H      0.07457     1.69237    -1.15107
O      1.41423     1.52383    -2.47350
H      1.88424     1.02289    -1.78637
O     -0.17184    -1.10356     3.41478
H     -0.78664    -0.85396     4.11202
O      0.64356     0.05040     3.24997
H      0.49558    -2.54322    -0.57844
O      0.32349     2.06424     0.46648
H      1.19081     1.70840     0.75547
O     -0.58157     1.41249     1.36498
H     -1.16178     0.91766     0.73950
O     -2.87934     0.91133    -1.27590
H     -2.19180     1.28915    -1.84035
O     -2.08973     0.12775    -0.38800
H     -1.77409    -0.60045    -0.96940
O      0.03196    -1.44590     0.82113
H     -0.09266    -1.59047     1.78258
O      0.57716    -2.68535     0.37306
H      0.12170     0.57626     2.60158
O      2.13033    -0.14394    -0.06161
H      1.32727    -0.60952     0.26851
O      2.53004     0.67134     1.04341
H      2.28449     0.14370     1.81828
