 36
-1364.9701394177864
O      0.03836     1.59590     2.48227
H      0.07511     2.05691     1.62853
O      1.41540     1.50137     2.86041
H      1.65770     0.63003     2.51233
O     -1.22405    -0.96890     2.48667
H     -1.14001    -0.02162     2.68805
O     -2.42490    -1.31668     3.16758
H     -3.04617    -1.33621     2.42782
O     -1.06953     0.60742    -0.12634
H     -0.33234    -0.04169    -0.01772
O     -0.96837     0.98305    -1.49634
H     -1.13598     0.11133    -1.91896
O     -1.60524    -1.50721    -2.00772
H     -2.39735    -1.56695    -1.44110
O     -0.77906    -2.50168    -1.40759
H     -0.02264    -2.49087    -2.00485
O      1.83830     2.50750     0.37973
H      2.25880     2.73751     1.21796
O      1.44887     3.78060    -0.15407
H      1.62623     3.59931    -1.08784
O     -3.44615    -0.33165     0.59305
H     -2.57842     0.01692     0.28936
O     -3.73695    -1.32001    -0.39690
H     -4.59520    -1.02192    -0.71302
O      1.39406     1.82511    -2.42911
H      0.46978     1.67045    -2.15395
O      2.06172     0.83560    -1.64838
H      2.02577     1.24368    -0.76105
O      1.81403    -1.67564    -2.48857
H      1.89916    -0.71813    -2.26102
O      2.51177    -2.28066    -1.39775
H      3.39461    -2.42477    -1.75390
O      0.97748    -0.97288     0.31377
H      1.53630    -1.59402    -0.20061
O      1.35585    -1.25361     1.66483
H      0.46643    -1.33055     2.05142
