 36
-1364.9733374888694
O      3.39398     0.24796    -1.14080
H      4.32351     0.46532    -1.26756
O      2.81303     0.59859    -2.39459
H      2.56801    -0.28307    -2.71896
O     -2.05320    -1.60583    -1.96341
H     -1.35774    -1.29857    -2.56153
O     -2.67081    -0.37170    -1.58982
H     -2.92336    -0.57090    -0.66559
O     -0.02156     0.69318     3.34872
H     -0.47284     1.35294     2.76720
O     -0.79422    -0.48333     3.10591
H     -0.24589    -0.96352     2.45605
O      1.60231    -1.95351    -2.61958
H      1.20505    -1.98851    -1.72399
O      0.44986    -1.72186    -3.42500
H      0.34740    -2.57486    -3.85693
O      0.18206     3.15839     1.61403
H      0.88798     2.54660     1.33500
O     -0.96196     2.31148     1.51365
H     -0.98405     2.07606     0.56112
O     -3.01469     0.09201     1.71184
H     -2.27337    -0.06514     2.33781
O     -2.98162    -1.11744     0.95748
H     -3.72211    -1.61853     1.31476
O      0.16513     0.57710    -1.30339
H      0.85689     1.04694    -1.79217
O     -0.83786     1.58076    -1.11079
H     -1.62391     1.08815    -1.41589
O      2.38872     0.60122     2.07427
H      1.58069     0.64792     2.62147
O      1.88136     1.20903     0.88177
H      2.45464     0.83463     0.18868
O      0.29660    -2.17451    -0.25268
H     -0.64134    -2.04776    -0.47453
O      0.46105    -1.39882     0.92698
H      0.55147    -0.48663     0.59248
