 36
-1364.9795159649318
O      2.73759    -0.22738     1.25623
H      2.76664     0.72587     1.47109
O      3.16466    -0.16890    -0.10513
H      2.36089    -0.46070    -0.58441
O     -3.26039    -0.60113    -0.93344
H     -3.47292    -0.10056    -1.72654
O     -2.32139    -1.56611    -1.41163
H     -1.48099    -1.05003    -1.39791
O     -2.79593    -2.55290     1.78499
H     -3.25952    -3.23170     2.28504
O     -2.10600    -3.34289     0.82069
H     -2.46102    -2.97817    -0.00529
O      1.02310    -1.06789    -1.40305
H      0.68565    -1.69275    -0.72309
O     -0.07840    -0.17158    -1.56366
H      0.32479     0.59462    -2.05102
O     -0.79530    -0.18617     1.24140
H     -0.77243    -0.89097     1.91024
O     -2.11447     0.35699     1.33474
H     -2.52878    -0.03757     0.54369
O      0.02433     2.20281     0.63419
H     -0.10343     1.23669     0.76031
O     -1.28862     2.67702     0.32497
H     -1.82595     2.06209     0.84864
O     -0.15294     2.76098    -2.52271
H     -0.43974     2.70785    -1.59790
O      1.06239     2.01691    -2.49437
H      1.62434     2.49300    -1.85918
O      2.67961     2.39817     0.94315
H      1.71968     2.54563     0.88320
O      3.05368     2.44492    -0.43918
H      3.34677     1.52128    -0.54724
O      0.92294    -2.23701     1.84491
H      1.62337    -1.61214     1.58309
O      0.52414    -2.76028     0.58022
H     -0.36987    -3.09328     0.78219
