 36
-1364.9728430637874
O      0.66835     2.20438     1.79828
H      1.47663     1.80364     1.45365
O     -0.08848     1.08010     2.23227
H      0.22977     0.33574     1.66606
O      0.86949    -0.85863     0.73592
H      1.40631    -0.74251    -0.08637
O      0.29619    -2.15797     0.60318
H     -0.61211    -1.92294     0.30660
O     -1.87591    -1.32084     2.73400
H     -1.50564    -0.58045     3.23530
O     -1.19302    -2.45348     3.28744
H     -0.53047    -2.62295     2.60314
O      0.05067    -2.29950    -2.74570
H      0.84731    -1.78374    -2.95972
O      0.55537    -3.49440    -2.15261
H      0.64778    -3.23205    -1.22491
O     -2.96459     0.82403     0.89489
H     -3.68343     0.95527     1.51952
O     -2.21733     2.02867     1.02125
H     -1.46583     1.72527     1.58489
O     -0.09264     1.28127    -1.13003
H     -0.85577     0.67332    -1.28088
O     -0.65223     2.58960    -1.20480
H     -1.20243     2.57671    -0.40541
O      1.78568     0.04220    -2.54694
H      1.06279     0.58424    -2.17549
O      2.48389    -0.29503    -1.33524
H      3.05294     0.48067    -1.20810
O      2.62716     2.49161    -0.93381
H      1.65890     2.47537    -0.85785
O      3.04306     2.41604     0.42600
H      3.25850     3.33185     0.63304
O     -1.77834    -0.72929    -1.58991
H     -1.22798    -1.41707    -2.02649
O     -2.05415    -1.35133    -0.33238
H     -2.43278    -0.60341     0.16570
