 32
-1213.3121208794732
O      2.84125     0.60510     1.64917
H      3.22877     1.05497     2.40624
O      1.94509    -0.31117     2.27583
H      1.08150     0.11384     2.07468
O     -2.18348    -3.71284    -1.11118
H     -3.00424    -4.19185    -0.97562
O     -2.34891    -2.65834    -0.16582
H     -2.28996    -1.86099    -0.73687
O     -1.79627    -0.46858    -1.65409
H     -0.84701    -0.53418    -1.91235
O     -1.75786     0.61024    -0.71183
H     -1.48320     1.36448    -1.26823
O     -0.79944     2.74476    -2.07262
H     -1.05318     3.38642    -2.74218
O      0.55654     2.47349    -2.41918
H      0.99192     2.64637    -1.55586
O      1.74498     2.35650    -0.04573
H      2.17466     1.61528     0.42740
O      0.94878     2.95682     0.97603
H      0.39570     2.20958     1.24919
O      0.78700    -0.30874    -2.19600
H      0.91093     0.62851    -2.41723
O      1.52244    -0.38743    -0.97285
H      1.11193    -1.15143    -0.53001
O      0.78653    -2.39028     0.69530
H      1.48347    -2.10005     1.30055
O     -0.34075    -2.31933     1.56801
H     -1.06264    -2.57809     0.95620
O     -0.37462     0.60545     1.53595
H     -0.90180     0.48291     0.70845
O     -1.17519     0.01823     2.54401
H     -0.94589    -0.91643     2.39115
