 32
-1213.3093944121567
O      2.73231    -2.66816     0.59508
H      2.82008    -2.06367    -0.16633
O      2.41456    -1.72729     1.62053
H      2.96156    -2.03224     2.35085
O      2.74277    -0.96178    -1.49142
H      1.87085    -0.92638    -1.91813
O      2.92366     0.37289    -1.03006
H      2.75249     0.27842    -0.08334
O     -3.63183    -0.03795    -0.26879
H     -4.39121    -0.23833    -0.82407
O     -2.98177    -1.29942    -0.14453
H     -2.36053    -1.26042    -0.91109
O     -0.27844     2.74966    -1.30800
H     -1.05943     2.62520    -0.73098
O      0.19032     1.40020    -1.43158
H      1.00100     1.39939    -0.89843
O      1.22504     0.96328     1.26429
H      0.40168     0.42652     1.33476
O      0.79591     2.24817     1.70020
H      1.21990     2.31209     2.56059
O     -0.07416    -1.65924    -1.82641
H     -0.08230    -1.78261    -0.85741
O     -1.19068    -0.78092    -1.99584
H     -0.78667     0.09804    -1.80901
O     -0.72450    -0.76753     1.52044
H     -1.65936    -0.88105     1.27909
O     -0.11432    -1.86992     0.83735
H      0.78149    -1.88447     1.23867
O     -2.33484     2.23209     0.32513
H     -2.77852     1.38839     0.13832
O     -1.89272     2.02339     1.66549
H     -0.95572     2.27014     1.58552
