 28
-1061.6431146679533
O      0.11566    -1.08728     1.42805
H     -0.45340    -1.29724     0.67177
O      1.42184    -1.35678     0.91509
H      1.78581    -0.45430     0.84616
O      2.71503    -2.07832    -1.62080
H      2.28895    -1.97218    -0.75485
O      3.60633    -0.96795    -1.62178
H      4.47041    -1.39118    -1.57312
O     -3.34807     1.42351     2.25222
H     -2.37161     1.43442     2.29016
O     -3.57980     0.00901     2.29621
H     -2.88620    -0.48089     0.80644
O     -0.66399     1.40739     1.95622
H     -0.30087     0.51981     1.75884
O     -0.63794     2.05097     0.67929
H     -1.33928     1.56024     0.20021
O      0.14223    -0.48464    -1.83394
H      0.68990     0.29361    -1.58759
O      0.61568    -0.78213    -3.14832
H      1.21703    -1.50874    -2.94695
O     -2.16005     0.35269    -0.71974
H     -1.48405     0.03512    -1.34883
O     -2.36438    -0.83373     0.05719
H     -4.49935    -0.02222     2.57568
O      1.53014     1.52759    -0.78228
H      0.89813     1.84472    -0.10029
O      2.55201     0.90252    -0.00571
H      2.99975     0.38372    -0.69781
