 40
-1516.642875168766
O      0.34320     2.13218    -3.10381
H      0.47301     2.42429    -2.18300
O      1.62641     1.58061    -3.40822
H      1.72195     1.82477    -4.33271
O     -1.18020    -2.39256    -0.20818
H     -0.89935    -1.94191     0.60843
O      0.05832    -2.89449    -0.71181
H      0.08938    -2.47037    -1.59705
O      1.62934     1.54325     2.56143
H      0.88564     1.00569     2.91156
O      0.95037     2.73918     2.18869
H      1.41378     3.38924     2.72289
O     -0.17179     1.39490    -0.29697
H      0.62193     0.81019    -0.26745
O      0.45185     2.67402    -0.45498
H      0.67777     2.81834     0.48220
O     -1.75023     0.27814    -2.07713
H     -1.31917     0.79468    -1.36171
O     -2.66822    -0.54973    -1.36986
H     -2.09341    -1.28195    -1.05866
O      1.17329    -2.17032     2.35034
H      1.69674    -1.76847     1.62791
O      1.13264    -3.54747     2.00014
H      0.91350    -3.50060     1.05876
O     -2.71126     1.51096     1.23750
H     -3.30721     2.20156     1.53827
O     -3.62213     0.45402     0.95342
H     -3.31230     0.18938     0.06438
O      0.20386    -1.36164    -2.89264
H     -0.47117    -0.66718    -2.71515
O      1.37160    -0.83155    -2.27301
H      1.53933     0.00414    -2.75308
O      2.19005     0.37570     0.17655
H      2.19560     0.61742     1.11979
O      2.25455    -1.05189     0.20367
H      1.93010    -1.22611    -0.70849
O     -0.33152    -0.18602     3.24595
H      0.15949    -1.02898     3.25949
O     -1.08191    -0.44582     2.05921
H     -1.68287     0.31869     1.97272
