 32
-1213.3022450563378
O     -1.55622    -1.53686     1.08919
H     -2.01005    -0.67264     1.07305
O     -1.59894    -1.95528     2.45067
H     -0.76040    -1.59029     2.76454
O      0.78872    -0.74707    -3.49094
H      0.01960    -0.27113    -3.81514
O      1.34946     0.22020    -2.59560
H      1.24904    -0.23889    -1.73218
O     -0.25267    -2.70285    -1.98172
H      0.18478    -2.09450    -2.60523
O     -1.33189    -1.87308    -1.54649
H     -1.37907    -2.10060    -0.60319
O     -2.34085     0.86073     0.17070
H     -1.99213     1.64717     0.62579
O     -1.54067     0.86162    -1.01449
H     -1.56836    -0.07444    -1.28549
O      1.93694     2.12964    -0.44828
H      2.37133     1.91598    -1.28650
O      0.76374     2.82514    -0.87305
H      0.11370     2.11095    -0.95192
O      1.03351    -0.98860    -0.25127
H      0.36844    -0.90737     0.45647
O      1.56284    -2.30167    -0.01305
H      1.04766    -2.80160    -0.66973
O      0.66640    -0.05476     2.33999
H      0.80383     0.86012     2.04291
O      1.98853    -0.49579     2.66558
H      2.19044    -1.03897     1.89150
O     -1.32453     2.95737     1.56281
H     -1.63496     3.35478     2.38192
O      0.06427     2.76893     1.85438
H      0.46678     3.24019     1.10815
