 32
-1213.3067661757195
O      0.06687     0.95743     1.03258
H     -0.52481     0.75780     0.27623
O      1.01264     1.82825     0.40074
H      1.82097     1.26013     0.42233
O     -0.20898    -2.42866    -0.17247
H      0.01644    -2.69004     0.73107
O     -1.61232    -2.15515    -0.05246
H     -1.75114    -1.57795    -0.81466
O     -0.14645     2.41444    -3.11527
H      0.07143     3.19288    -3.63865
O     -0.58186     2.97433    -1.88168
H      0.15045     2.73243    -1.29191
O     -1.76297     0.60945    -0.85038
H     -1.78517     1.44066    -1.35868
O     -3.09906     0.51836    -0.32807
H     -2.92159     0.64549     0.62601
O      0.25095    -0.65381    -2.75398
H      0.09228     0.27455    -2.96006
O      0.99521    -0.49028    -1.54673
H      0.62381    -1.21790    -1.00072
O      3.50215    -0.23742    -0.64334
H      2.66139    -0.28519    -1.13288
O      3.02830     0.11828     0.65479
H      2.79009    -0.74569     1.03478
O      2.11218    -1.94488     2.10145
H      2.49213    -2.04268     2.98090
O      0.74529    -1.67617     2.38586
H      0.66380    -0.74587     2.11133
O     -2.47892     0.67896     2.30367
H     -1.61753     1.12379     2.27076
O     -2.12445    -0.64523     2.70480
H     -2.08629    -1.11717     1.85753
