 36
-1364.9745074395842
O      3.11262    -1.83352    -1.02170
H      2.50357    -2.56690    -1.20153
O      3.18775    -1.14943    -2.27275
H      2.39633    -0.59562    -2.23229
O     -0.88985    -0.86818     1.48644
H     -1.22981    -1.46105     0.79623
O     -1.92719     0.12105     1.52701
H     -1.66624     0.63439     2.30513
O      0.98651    -3.70765    -0.42122
H      0.10968    -3.66535    -0.82829
O      0.66807    -3.46599     0.95093
H      1.20131    -2.68091     1.13498
O     -1.26858    -2.05529    -1.13071
H     -0.51000    -1.45508    -1.31417
O     -1.99550    -2.02150    -2.34777
H     -2.65387    -1.34259    -2.15378
O      0.60005    -0.19477    -1.26763
H      0.96268     0.04688    -0.37418
O      0.07173     1.04278    -1.76013
H     -0.89849     0.88500    -1.63309
O     -2.37971     0.71838    -0.97966
H     -2.30906     0.52165    -0.01325
O     -2.89383     2.04877    -0.99332
H     -2.13704     2.55729    -0.65520
O     -0.02914     1.88554     2.71841
H     -0.00679     2.47309     1.94405
O     -0.54078     2.75024     3.72982
H      0.21059     2.78050     4.32869
O      0.35946     2.96525     0.09222
H      0.35471     2.29695    -0.63094
O     -0.85745     3.66507    -0.15156
H     -0.56572     4.40602    -0.69262
O      2.18728    -0.92204     1.30672
H      2.74446    -1.11305     0.52547
O      1.73545     0.39169     0.98181
H      1.25537     0.63385     1.79197
