 36
-1364.9795186476308
O      0.97982     2.32755     1.94104
H      0.26592     1.64401     1.95837
O      0.24099     3.51010     2.22561
H      0.60146     3.74231     3.08555
O     -2.88313    -2.70853     1.07178
H     -3.42438    -2.94933     1.82887
O     -1.57015    -2.92066     1.58322
H     -1.20449    -2.01331     1.51695
O      2.62807    -1.38926     0.04911
H      1.90938    -2.05129     0.08705
O      2.03605    -0.29118     0.75308
H      2.43534     0.48189     0.29051
O      1.79398     0.31986    -2.75858
H      0.83902     0.34761    -2.53116
O      2.09996    -1.06185    -2.55947
H      2.54143    -1.03642    -1.69107
O     -0.65642     0.40882    -1.81082
H     -0.73594    -0.35064    -1.20473
O     -0.83069     1.53725    -0.95256
H      0.05629     1.94376    -0.94295
O      2.79262     1.76516    -0.75755
H      2.64999     1.39715    -1.65432
O      1.64488     2.61260    -0.63780
H      1.56064     2.68480     0.33724
O     -4.00832     0.02101     0.25149
H     -3.45734    -0.73171     0.51020
O     -3.14551     1.11685     0.54195
H     -2.79433     1.35219    -0.33088
O      0.51911    -2.98295    -0.44424
H     -0.26176    -3.29684     0.03522
O     -0.07182    -2.40771    -1.61126
H      0.71414    -2.06052    -2.07301
O     -0.92507     0.48867     1.80666
H     -1.78406     0.75894     1.40019
O     -0.55194    -0.58005     0.93357
H      0.41977    -0.42896     0.83326
