 28
-1061.6372706105208
O     -1.33260    -0.87559     0.09547
H     -1.80687    -0.63665    -0.72840
O     -0.76140    -2.14697    -0.25418
H     -0.31571    -2.39253     0.58391
O     -0.27256     0.20015     2.89603
H      0.08573     0.88385     3.46752
O      0.25711     0.60027     1.63417
H     -0.28505     0.04808     1.01876
O      1.09416    -2.65113     1.55947
H      1.78718    -2.23482     1.02492
O      1.31077    -2.07045     2.84598
H      1.03561     0.21460    -2.06403
O     -0.75241     3.06858     1.29567
H     -0.25864     2.23315     1.37723
O     -0.73237     3.27901    -0.11819
H     -1.47327     2.73773    -0.42764
O     -2.32582    -0.06233    -2.25036
H     -3.17682     0.09987    -2.66774
O     -1.93923     1.26069    -1.87633
H     -0.97063     1.20862    -2.06036
O      1.26790     1.73641    -0.98083
H      0.62090     2.44054    -0.77565
O      0.65378     1.11039    -2.11239
H      0.70725    -1.31387     2.82304
O      1.39783    -1.50191    -1.75553
H      0.60805    -1.83132    -1.27945
O      2.40427    -1.63106    -0.75412
H      3.01151    -2.24004    -1.18291
