 40
-1516.639669784572
O      2.43294    -1.65051    -0.73330
H      1.89109    -2.34253    -1.18171
O      1.68967    -0.50187    -1.12712
H      0.98691    -0.46317    -0.45391
O     -3.24854     0.83514     0.99261
H     -2.95692     1.75689     1.14005
O     -3.31405     0.81867    -0.44057
H     -3.09635    -0.11601    -0.62778
O      0.73740     2.14920     0.66818
H      1.58897     2.56173     0.45858
O      1.12301     1.23310     1.71004
H      0.27232     0.80873     1.91601
O     -0.46007    -1.15580     0.99155
H      0.14440    -1.71682     1.51977
O     -1.04264    -0.33814     2.00463
H     -1.85801     0.00156     1.56602
O     -1.74455     3.05319     1.15991
H     -0.81226     2.77801     1.00473
O     -1.70368     3.49108     2.51490
H     -1.81399     4.43872     2.40241
O     -0.87688     1.19042    -1.91709
H     -1.58185     1.52430    -1.33874
O     -0.31348     2.38386    -2.44451
H      0.60167     2.27201    -2.15880
O     -1.29913    -1.46353    -2.05536
H     -1.17977    -0.49798    -2.13359
O     -2.21690    -1.56859    -0.96360
H     -1.60601    -1.65823    -0.20901
O      0.58264    -3.31683    -1.54958
H     -0.17726    -2.75712    -1.81671
O      0.11990    -3.84567    -0.30067
H      0.94999    -4.12743     0.10424
O      2.26899    -3.28800     1.57073
H      2.50999    -2.58372     0.94650
O      1.31008    -2.61359     2.37424
H      1.74091    -2.54313     3.23303
O      3.17326     1.70855    -0.82124
H      2.70064     0.85217    -0.91779
O      2.63094     2.47824    -1.89247
H      3.25582     2.32164    -2.60786
