 32
-1213.3059634975089
O     -0.73129    -2.21917     1.28706
H     -1.29697    -2.27428     0.48892
O     -1.53636    -1.38150     2.12819
H     -1.15365    -0.49947     1.96078
O      0.04171    -1.94266    -1.74961
H     -0.39705    -1.12573    -2.02218
O      1.41204    -1.60224    -2.00452
H      1.81574    -1.69320    -1.11645
O     -3.71593    -1.32830     0.56957
H     -3.19844    -1.42866     1.38834
O     -2.67327    -1.55415    -0.39034
H     -2.49224    -0.64218    -0.65835
O     -2.60514     1.34736    -0.44736
H     -3.53819     1.57327    -0.40775
O     -2.06871     2.28437    -1.39776
H     -1.16272     1.92444    -1.44147
O      4.01224     0.99175     0.09951
H      4.59608     1.46158     0.70209
O      2.79577     1.71660     0.28044
H      2.38420     1.61087    -0.60153
O      0.16148     0.80361    -1.24360
H      0.42791     0.43281    -0.38096
O      1.40616     1.04321    -1.91126
H      1.62086     0.11851    -2.16253
O     -0.66659     1.08647     1.41584
H     -1.40511     1.44185     0.89006
O      0.12107     2.24750     1.63973
H      0.99582     1.92529     1.37559
O      2.53661    -1.26479     0.38934
H      3.13828    -0.50364     0.37253
O      1.42642    -0.66830     1.08328
H      0.79056    -1.41029     1.16101
