 32
-1213.3078669642516
O      0.07120     0.61452     2.93017
H      0.13265    -0.29494     2.57755
O      1.32224     0.74006     3.60628
H      1.91714     0.92548     2.85988
O     -3.96773    -1.06441    -1.68823
H     -4.82765    -1.38411    -1.97611
O     -3.07563    -1.89333    -2.43263
H     -2.31255    -1.30110    -2.47704
O      3.03031     0.01503     0.70899
H      3.24328     0.25948    -0.21015
O      2.44604     1.23001     1.19703
H      1.61506     1.28029     0.69639
O      0.08284     1.58104    -0.03824
H      0.42076     2.38273    -0.45583
O     -0.86299     2.05015     0.91834
H     -0.46124     1.67460     1.74048
O      2.68877     0.67619    -1.90391
H      1.87102     0.16127    -2.08688
O      2.24167     2.01644    -2.08022
H      2.73325     2.27400    -2.86676
O     -0.70832    -0.22173    -1.97939
H     -0.54803     0.40120    -1.24938
O      0.54184    -0.91462    -2.06118
H      0.58714    -1.38790    -1.19803
O      0.12488    -1.60474     1.47202
H     -0.74596    -1.63504     1.01650
O      1.05194    -1.77713     0.39997
H      1.79839    -1.19855     0.66803
O     -2.65304    -0.45087     1.38857
H     -2.16398     0.34574     1.14325
O     -2.27012    -1.35092     0.35532
H     -3.02946    -1.31280    -0.26806
