 20
-758.3056626717383
O     -1.19766    -1.00014     1.29232
H     -1.52015    -1.17450     0.39231
O     -1.59149     0.38152     1.42263
H     -0.70967     0.79616     1.45911
O      0.34005    -0.64531    -1.47443
H      1.28320    -0.49330    -1.60829
O     -0.14124     0.70681    -1.41542
H     -0.98794     0.61067    -1.86953
O      1.41078    -0.54709     1.45585
H      0.52214    -0.94040     1.33277
O      1.04131     0.84307     1.55713
H      1.41309     1.16938     0.72277
O      2.84773     1.18512    -0.41482
H      3.65495     1.52399    -0.01407
O      3.14860    -0.20783    -0.57047
H      2.65838    -0.56007     0.19722
O     -3.07355     0.32042    -1.06294
H     -2.73623     0.64983    -0.21437
O     -2.74931    -1.06644    -0.92725
H     -3.61222    -1.46820    -0.77292
