 40
-1516.6417178598106
O      1.35056     3.79354     0.13469
H      1.34601     4.70756     0.43079
O      1.12448     3.07027     1.34028
H      0.17886     2.80268     1.23460
O      1.34218    -1.22873    -2.25834
H      1.28738    -0.27968    -2.45518
O      0.95144    -1.24397    -0.88853
H      0.00002    -0.95985    -0.92349
O     -1.60574    -0.56067    -1.26802
H     -1.94713     0.09866    -1.91439
O     -2.36617    -0.23405    -0.09448
H     -2.51276    -1.11830     0.27562
O     -1.25268     1.97483     1.03691
H     -1.74164     1.22473     0.62995
O     -1.17070     1.56354     2.40035
H     -0.61824     0.76788     2.30186
O     -2.38599     1.47287    -2.79639
H     -3.06629     1.68461    -3.44182
O     -1.22656     1.33331    -3.62338
H     -0.56971     1.74923    -3.03535
O      0.57401     2.10350    -1.77596
H      0.78194     2.78003    -1.09741
O      1.86035     1.80170    -2.32319
H      2.32742     1.47817    -1.52984
O      2.51319     0.70707     1.28009
H      2.05996     1.56867     1.28765
O      2.77225     0.50239    -0.10933
H      2.18555    -0.26203    -0.30950
O      1.19920    -1.45892     2.10695
H      1.79154    -0.70841     1.87718
O     -0.06517    -0.82293     1.88683
H     -0.69934    -1.46569     2.26781
O      0.26875    -3.81479     1.21171
H      0.83778    -3.08544     1.52753
O      0.52115    -3.87426    -0.19438
H      0.73503    -2.95457    -0.42850
O     -2.17698    -2.85554     1.16713
H     -1.32278    -3.33166     1.01044
O     -2.01929    -2.46899     2.53613
H     -2.22560    -3.27538     3.01792
