 32
-1213.3094742316364
O      1.00654     1.06046    -0.27931
H      0.67742     0.14123    -0.38612
O      1.96970     0.93220     0.76627
H      2.58226     0.26273     0.40667
O      0.70880    -2.15296     0.56847
H      0.39962    -1.57683     1.31028
O      0.10357    -1.42453    -0.51248
H     -0.85442    -1.55021    -0.30196
O     -1.29722     2.12591    -1.09071
H     -0.42007     1.94507    -0.69874
O     -1.71846     0.80400    -1.43555
H     -1.03742     0.51262    -2.07505
O     -1.58985     1.89508     1.95616
H     -1.32138     2.61026     2.54365
O     -2.73135     2.42972     1.29119
H     -2.39217     2.46117     0.38010
O      3.68824    -0.98742    -0.07815
H      4.44714    -0.80654    -0.63897
O      2.86442    -1.74415    -0.96877
H      2.19433    -2.07270    -0.33793
O      0.02202    -0.37288    -3.10367
H     -0.09645    -0.66869    -4.01169
O      1.39645    -0.01915    -3.05303
H      1.74324    -0.71065    -2.46912
O     -0.41825    -0.48738     2.25139
H     -0.90168     0.34569     2.04745
O      0.72057    -0.01979     2.96943
H      1.25386     0.35867     2.24437
O     -3.02571    -0.48470     0.47382
H     -2.62038     0.03289    -0.25242
O     -2.34493    -1.73488     0.29680
H     -2.49691    -2.15328     1.15049
