 32
-1213.3106832836067
O      1.54225     0.98932     1.40087
H      1.47856     0.27878     0.73330
O      1.97949     2.09993     0.60831
H      1.19193     2.67130     0.71774
O     -0.48314    -2.29350    -1.87492
H     -0.62844    -1.33333    -1.99284
O     -1.51653    -2.64637    -0.96033
H     -1.03943    -2.61452    -0.11588
O     -0.62460     0.37299    -2.03189
H      0.23711     0.82931    -2.03456
O     -1.29053     1.02642    -0.94757
H     -1.69244     0.29182    -0.43821
O     -0.56021     2.76435     0.90226
H     -0.89212     2.25285     0.14107
O     -0.86224     1.86035     1.97212
H     -0.03098     1.34203     2.01692
O      1.85703     1.51473    -2.00834
H      2.08463     1.78040    -1.09148
O      2.84336     0.52604    -2.26755
H      3.12515     0.74676    -3.16032
O      1.58877    -0.90435    -0.44588
H      2.09698    -0.57226    -1.21246
O      1.81111    -2.30684    -0.53188
H      1.03274    -2.53742    -1.07838
O     -0.30576    -1.16889     2.65333
H     -1.22700    -0.97083     2.45268
O     -0.02679    -2.07924     1.58319
H      0.91061    -1.92060     1.39695
O     -3.23389     0.73219     1.28464
H     -2.43948     1.20060     1.61236
O     -2.60665    -0.47247     0.82466
H     -3.36212    -1.04854     0.65734
