 36
-1364.9771541609196
O     -0.34625     2.04875     0.92541
H      0.11843     1.29588     1.34493
O      0.69963     3.01276     0.89702
H      1.04552     2.82140     0.00738
O      0.75778     0.01319     2.16583
H      1.68501    -0.24550     2.29293
O      0.01402    -1.19089     2.36493
H      0.14331    -1.63330     1.49923
O      0.97071    -1.98292     0.03896
H      1.91997    -1.76774     0.13794
O      0.66046    -1.28088    -1.15799
H     -0.26074    -0.95159    -1.02144
O     -1.65366    -0.02144    -0.95206
H     -2.13581    -0.04870    -0.09946
O     -1.64547     1.37977    -1.23430
H     -1.10564     1.71664    -0.47658
O      0.29589     1.32316    -3.81929
H      0.24216     0.43832    -4.19591
O     -1.05922     1.78259    -3.85553
H     -1.32007     1.63289    -2.92444
O      2.20409     0.86692    -1.28207
H      1.59012     0.10434    -1.31347
O      1.31187     1.96289    -1.47291
H      0.96280     1.79267    -2.38035
O     -2.60594    -0.54192     2.64988
H     -1.66597    -0.80682     2.68736
O     -2.60469     0.30066     1.49496
H     -2.11250     1.08531     1.78019
O      3.43852     0.13695     0.99320
H      3.03763     0.57043     0.20822
O      3.47430    -1.21894     0.55916
H      4.39593    -1.34806     0.31459
O     -1.79224    -2.73483     0.24898
H     -1.49074    -3.54738    -0.16897
O     -2.27954    -3.21301     1.50808
H     -2.87715    -2.48656     1.72334
