 36
-1364.9757146540892
O      0.26730     3.18834    -0.73119
H      0.00858     2.40841    -1.25994
O      0.94832     2.54249     0.34090
H      0.32500     2.61248     1.08215
O     -1.82606    -1.96338     0.47375
H     -1.47881    -2.86522     0.54576
O     -2.15001    -1.91662    -0.92264
H     -2.11170    -0.95193    -1.09363
O     -0.53535     1.00383     3.13331
H     -0.18513     0.53159     2.34613
O      0.01664     2.31207     2.97115
H      0.83173     2.26722     3.47795
O      0.21520    -0.38000     0.95686
H     -0.56125    -0.95519     0.72613
O      1.28735    -1.32506     1.07244
H      1.87427    -0.98195     0.38135
O     -2.41412     2.33323     0.57533
H     -3.05422     3.04448     0.44472
O     -3.01663     1.53832     1.59524
H     -2.37949     1.65904     2.31421
O     -1.84084     0.66671    -1.46966
H     -1.93007     1.27835    -0.71185
O     -0.49304     0.88094    -1.89736
H     -0.16872    -0.04274    -1.99801
O      2.41363     0.64730    -0.72614
H      1.85233     1.32316    -0.26045
O      3.66432     0.75085    -0.05606
H      4.14581     1.33509    -0.64776
O      1.89069    -1.52483    -2.65751
H      2.13580    -0.66308    -2.29822
O      0.51315    -1.54538    -2.29304
H      0.44314    -2.38382    -1.79240
O      0.54807    -3.87080    -0.95539
H      1.24114    -4.53401    -1.04568
O      0.37939    -3.77188     0.45634
H      0.79664    -2.90550     0.64421
