 24
-909.9757401621026
O     -0.62811    -2.32465    -2.11033
H      0.11447    -1.70934    -2.22636
O     -1.73165    -1.49889    -2.47815
H     -2.01903    -1.89377    -3.30614
O     -0.25169    -1.96659     0.85584
H     -0.48617    -2.24274    -0.04706
O     -1.51846    -1.72784     1.47542
H     -1.61871    -0.78004     1.29222
O      1.20230    -0.24350    -1.24027
H      0.46893     0.04640    -0.65702
O      1.23785     0.88972    -2.11871
H      1.54595     1.57967    -1.51083
O     -1.73343     1.28080    -0.80246
H     -1.57358     0.64100    -1.51176
O     -0.77517     0.83083     0.16302
H     -0.39667     1.67444     0.50038
O      1.33056    -0.10282     1.89599
H      0.82467    -0.81379     1.43433
O      0.42538     0.25486     2.94442
H      0.26722    -0.59331     3.37209
O      0.66515     2.85578     1.04553
H      0.89577     2.98798     1.97215
O      1.80647     2.17292     0.51845
H      1.73510     1.29609     0.94968
