 24
-909.9823406303769
O     -1.84601    -2.12588     0.36651
H     -1.47546    -1.72865     1.17909
O     -3.00901    -1.32762     0.14120
H     -2.63214    -0.50798    -0.21742
O     -0.18242    -1.33903    -1.52616
H     -0.81591    -1.84594    -0.96194
O      1.01516    -1.43251    -0.74234
H      1.52409    -0.67095    -1.08372
O      3.40865     0.45095    -0.95246
H      3.81696     0.52306    -1.81947
O      2.11564     0.97758    -1.24391
H      1.93252     1.49015    -0.43209
O     -2.28499     1.03657    -0.99326
H     -2.68660     1.33242    -1.81703
O     -0.89821     1.19954    -1.26866
H     -0.61645     0.26554    -1.42685
O     -0.54723    -0.56162     2.14124
H     -0.68865     0.37957     1.92361
O      0.84799    -0.68230     1.83342
H      0.83004    -1.06433     0.93489
O      1.30703     1.85806     1.19541
H      1.44096     0.99810     1.64002
O     -0.12730     1.89378     1.22226
H     -0.35315     1.80836     0.27810
