 40
-1516.6378918901876
O      2.92424     0.31175    -2.64311
H      3.87929     0.20943    -2.67897
O      2.77333     1.44118    -1.79596
H      2.48552     1.05009    -0.94167
O     -2.52331    -1.03271    -0.22555
H     -1.98664    -1.74324    -0.63235
O     -2.17723    -1.07409     1.15275
H     -1.67037    -0.24930     1.25609
O     -0.75231     1.66486     1.17635
H     -1.31935     1.95059     0.43872
O     -0.79246     2.78062     2.06790
H     -0.69665     2.31103     2.90853
O      1.72841     0.86802     0.64301
H      0.84546     1.28308     0.77271
O      1.78394    -0.05895     1.72359
H      1.31124    -0.84282     1.36946
O     -2.32022     1.39783    -1.20159
H     -2.55388     0.50156    -0.88412
O     -1.41220     1.02531    -2.24664
H     -0.87506     1.83458    -2.33586
O      0.57553     3.33806    -0.78517
H      0.74482     4.28661    -0.81549
O      0.55105     2.97658    -2.17276
H      1.38963     2.47872    -2.22413
O      0.82844    -1.38909    -2.52857
H      1.63556    -0.87306    -2.69279
O      0.42534    -0.68114    -1.35235
H     -0.30001    -0.10355    -1.68378
O     -0.41282    -2.74021     2.29047
H     -1.22664    -2.28540     2.00445
O      0.46606    -2.34357     1.24187
H      0.20900    -2.93699     0.51077
O     -1.16188    -2.94512    -1.59628
H     -0.41551    -2.53378    -2.07548
O     -0.47503    -3.89289    -0.77955
H     -1.04094    -4.66700    -0.85236
O      0.39660     0.81204     3.82051
H      0.97601     0.58018     3.06248
O     -0.61759    -0.20054     3.76631
H     -0.11937    -1.02494     3.66665
