 16
-606.6399330645556
O     -1.81735    -0.38614     0.78764
H     -1.49061     0.47982     0.48426
O     -2.23509    -0.10017     2.12266
H     -3.16449    -0.33729     2.07272
O      1.42078    -1.04456     1.38103
H      1.32144    -0.10643     1.16988
O      0.56486    -1.64929     0.41533
H     -0.32112    -1.32887     0.67532
O      0.70004    -0.04393    -2.35718
H      0.27347    -0.72728    -2.88246
O      1.80178    -0.74383    -1.76568
H      1.38318    -1.10385    -0.94946
O     -0.29933     1.53898    -0.47774
H      0.13847     0.97850    -1.15833
O      0.79846     1.83647     0.38824
H      1.03164     2.72510     0.10601
