 32
-1213.3110933690452
O     -1.58317    -2.49778     0.32625
H     -1.95533    -1.99954    -0.42689
O     -2.06174    -1.63939     1.37791
H     -1.30023    -1.61980     1.98233
O      1.03862    -2.04169     0.20332
H      0.16855    -2.48828     0.17620
O      0.72769    -0.89986    -0.60644
H      0.24611    -0.31370     0.02156
O     -2.93642     0.37905    -0.19986
H     -2.89752    -0.18448     0.59226
O     -2.62019    -0.60407    -1.18967
H     -1.97060    -0.13136    -1.73894
O     -0.28184     1.72032    -2.57772
H      0.65348     1.46039    -2.59383
O     -0.92055     0.50019    -2.93696
H     -1.25096     0.69981    -3.81849
O      1.55868     2.92716    -0.22153
H      0.60870     2.69876    -0.23865
O      1.96337     2.08229     0.87395
H      2.51651     1.44505     0.38018
O      2.58997     1.40566    -2.13405
H      2.43277     2.22254    -1.62601
O      2.93593     0.53705    -1.04820
H      2.20550    -0.11540    -1.05216
O     -0.82073     1.93298     0.32873
H     -1.65557     1.55663    -0.00841
O     -0.35441     0.81680     1.11421
H      0.49224     1.19027     1.42584
O      0.32060    -2.68590     3.77031
H      0.70052    -2.27554     4.55174
O      0.24586    -1.56463     2.89001
H      0.87371    -1.81749     2.19231
