 24
-909.9714129687769
O     -0.68380    -1.80491     0.70373
H     -0.29273    -1.47730     1.53606
O     -1.98527    -1.21404     0.72888
H     -1.81311    -0.36337     0.29926
O     -0.44351    -1.61664    -2.94367
H     -1.01284    -2.22784    -3.42517
O      0.24552    -2.46836    -2.03649
H     -0.19676    -2.25151    -1.19760
O      2.25707    -0.40486    -1.50395
H      1.92186    -1.29193    -1.68745
O      1.64237    -0.13706    -0.24084
H      0.84020     0.34518    -0.53471
O     -0.63886     1.11074    -0.75344
H     -0.70810     2.02104    -0.41544
O     -1.05864     1.20894    -2.12209
H     -0.61629     0.41573    -2.45739
O      1.21176     0.42710     2.38306
H      1.45436     0.17475     1.46571
O      0.58036    -0.76253     2.85705
H      1.28837    -1.19139     3.34723
O     -0.96506     2.35989     1.73180
H     -0.26139     1.81853     2.11324
O     -0.18573     3.26154     0.93858
H     -0.62505     4.09557     1.12260
