 36
-1364.9767924008102
O      0.35085     0.55279    -2.04215
H      0.30381     1.51377    -1.84774
O      1.72100     0.28216    -1.71939
H      1.77877    -0.67630    -1.91976
O     -3.17637    -0.23490     1.03978
H     -2.58584    -0.99864     1.15787
O     -2.42295     0.47699     0.05486
H     -2.21157     1.31125     0.52798
O     -2.52567    -1.37342    -1.83148
H     -2.72042    -0.69688    -1.15084
O     -1.14420    -1.58717    -1.59178
H     -0.74246    -0.69955    -1.72950
O      0.52497     3.18833    -1.55113
H      0.93397     3.81397    -2.15738
O     -0.75404     3.77216    -1.30253
H     -0.67898     3.93890    -0.35175
O      1.58469    -2.37518    -2.04276
H      0.64977    -2.43330    -2.28939
O      1.51993    -2.93756    -0.72572
H      2.14337    -2.37410    -0.24466
O      1.84480     0.86847     0.89671
H      1.77836     0.76217    -0.07956
O      0.47152     0.80999     1.28250
H      0.28188    -0.15827     1.31512
O     -0.68522     3.18434     1.48239
H     -0.19358     2.33639     1.39781
O     -2.02545     2.69229     1.50945
H     -2.23301     2.67717     2.45029
O      2.98462    -1.50314     1.42825
H      2.65481    -0.57875     1.45737
O      2.79168    -1.91905     2.77639
H      3.69288    -2.13668     3.03279
O     -1.32756    -2.25751     0.94310
H     -1.21948    -2.16800    -0.03402
O     -0.06823    -1.79195     1.42541
H      0.45439    -2.60102     1.50934
