 32
-1213.308206086792
O      3.27127     0.45785    -0.04282
H      3.21923     0.64223    -0.99133
O      2.60354     1.61822     0.47531
H      1.78769     1.22495     0.85572
O     -0.64072    -2.72695     0.33758
H      0.29571    -2.44137     0.36195
O     -0.95771    -2.50233    -1.03910
H     -0.94607    -1.52604    -1.10583
O     -0.57617     0.08212    -1.53968
H      0.24173     0.54090    -1.82879
O     -1.57693     0.71339    -2.33475
H     -2.16526     1.00632    -1.62435
O      0.30425     0.55000     1.19552
H     -0.35513     0.74869     0.49605
O     -0.36459     0.99829     2.37787
H     -0.73674     0.15108     2.67594
O      1.61391     2.76256    -1.80961
H      2.03284     2.64927    -0.93824
O      1.69957     1.40305    -2.25852
H      2.00689     1.49832    -3.16603
O      1.78603    -1.81387    -0.25481
H      2.32777    -1.04459    -0.00182
O      1.77688    -1.71153    -1.68975
H      0.98697    -2.23981    -1.88119
O     -2.44606    -1.46856     1.80840
H     -1.86556    -2.04067     1.24995
O     -1.64093    -1.35707     2.98919
H     -2.28538    -1.57502     3.66646
O     -2.70486     1.90323     1.29035
H     -1.90182     1.85802     1.83413
O     -2.44963     0.81873     0.39805
H     -2.65177     0.03748     0.94355
