 32
-1213.3020173209254
O      1.79751    -0.48600     0.42923
H      2.05953    -1.24506    -0.14406
O      2.71266     0.55117     0.05936
H      2.27031     0.93259    -0.71700
O      1.46027    -3.39361    -0.14729
H      0.69253    -2.98843     0.28371
O      1.67124    -2.56314    -1.28517
H      0.76465    -2.31407    -1.55531
O     -3.16093    -1.14926     0.17791
H     -2.36300    -1.11033     0.74241
O     -3.45173     0.24322     0.02694
H     -4.17094     0.38179     0.65277
O     -1.10097     2.23218     1.24113
H     -0.15196     2.18632     1.47529
O     -1.08940     1.48743     0.02156
H     -1.99422     1.10326     0.00244
O     -0.59883    -1.17525    -1.41649
H     -0.24901    -0.33159    -1.77832
O     -1.64724    -1.49345    -2.32705
H     -2.38318    -1.53256    -1.70215
O      1.54006     2.11618     1.92743
H      2.11790     1.55773     1.36156
O      2.12181     3.41205     1.78712
H      2.40527     3.57926     2.69064
O     -0.28350    -1.99876     1.96496
H      0.30386    -1.74019     2.68447
O     -0.92488    -0.77880     1.63848
H     -0.31838    -0.36695     0.99236
O      0.44358     0.99153    -2.52281
H      0.05590     1.53165    -3.21892
O      0.91619     1.95450    -1.58210
H      0.18627     1.91440    -0.92146
