 40
-1516.6425196192886
O      2.29301    -0.14244    -2.42654
H      2.56076     0.04744    -1.50277
O      1.78291     1.11460    -2.86647
H      2.42234     1.35170    -3.54518
O     -0.44634    -2.24437     0.77200
H     -0.52036    -2.23163    -0.21340
O     -0.46610    -0.85280     1.04253
H      0.29355    -0.51940     0.52181
O      1.82695     1.21119     2.31421
H      1.35074     1.90506     1.81303
O      0.81509     0.74834     3.21497
H      1.08311    -0.17400     3.33792
O     -0.87151     0.59592    -3.11986
H      0.06770     0.86568    -3.12855
O     -1.38767     1.51191    -2.14275
H     -2.30976     1.18850    -2.03278
O     -1.83559     1.74665     2.14289
H     -1.23076     1.20908     2.67827
O     -2.54095     0.74931     1.40042
H     -1.83052     0.11494     1.13997
O      0.43556     1.52337    -0.17715
H     -0.26162     1.61970    -0.86714
O      0.26032     2.65209     0.68028
H     -0.61768     2.47829     1.06971
O     -3.77093     0.54925    -1.47699
H     -4.66002     0.38647    -1.80353
O     -3.94952     1.73203    -0.69411
H     -3.51130     1.43975     0.12694
O     -0.75989    -1.76314    -1.83005
H     -0.98122    -0.97006    -2.37142
O      0.26939    -2.39018    -2.58797
H      0.99402    -1.75523    -2.47883
O      1.11576    -2.23008     3.02026
H      0.55121    -2.33844     2.23034
O      2.40454    -2.59709     2.53239
H      2.44485    -3.53932     2.72216
O      2.94224    -0.15109     0.21335
H      2.56931     0.30226     0.99438
O      2.18199    -1.36508     0.16204
H      2.42127    -1.80599     1.00237
