 20
-758.3094213901423
O      1.33724    -1.98205     1.46893
H      1.96001    -1.77223     0.75710
O      0.38960    -2.77344     0.74759
H      0.20155    -3.46939     1.38270
O     -0.66580    -0.38929    -1.35151
H     -1.14616     0.46847    -1.41653
O     -1.36771    -1.02914    -0.27780
H     -0.69584    -1.66883     0.03735
O     -1.33261     1.09496     1.31865
H     -1.44905     0.23085     0.87081
O     -0.03618     0.97117     1.88465
H      0.52863     0.82764     1.11155
O      1.77284     0.16358    -0.43601
H      0.95708    -0.11689    -0.90508
O      2.64350    -0.92986    -0.72299
H      3.48600    -0.46899    -0.76723
O     -1.74160     2.01782    -1.58812
H     -2.63364     2.35878    -1.47076
O     -0.96620     2.82045    -0.69124
H     -1.05645     2.29557     0.13700
