 36
-1364.9732758602934
O      3.37312    -2.09496     1.50177
H      4.29991    -1.92762     1.70370
O      3.20233    -1.35550     0.29264
H      2.74635    -0.55779     0.61077
O      1.24466    -2.75146    -1.68431
H      1.79852    -2.22463    -1.08784
O      0.40019    -1.75257    -2.24103
H     -0.46147    -2.21376    -2.26697
O      1.07671     0.63432    -0.87112
H      1.08642     1.52375    -0.44716
O      0.36055     0.88905    -2.09328
H      0.41144    -0.01304    -2.45927
O     -2.64466     0.43349    -0.77845
H     -2.90366    -0.26033    -1.40165
O     -2.22021     1.52806    -1.59188
H     -1.28754     1.30837    -1.78751
O     -1.96621    -2.99310    -2.13427
H     -2.03640    -3.93814    -1.95877
O     -2.67796    -2.41689    -1.04143
H     -1.94682    -2.18523    -0.43066
O     -1.58505     3.42294     0.27831
H     -1.98093     2.84061    -0.39264
O     -1.80450     2.64897     1.46895
H     -0.95819     2.81056     1.91904
O      0.99217     3.02254     0.34851
H      0.10186     3.39116     0.14783
O      0.84858     2.87194     1.77271
H      1.13943     1.94747     1.89283
O     -0.66776    -1.40633     0.37343
H     -0.08166    -0.92538    -0.23811
O     -1.15064    -0.36711     1.22810
H     -1.81052     0.07187     0.64855
O      1.76338    -0.40029     3.17880
H      2.19011    -1.17197     2.78346
O      1.31247     0.23781     1.98076
H      0.37628    -0.07096     1.90373
