 28
-1061.6368202845986
O      1.87963    -0.79402     0.45392
H      1.67225    -1.72189     0.24156
O      1.99109    -0.84380     1.88258
H      1.16266    -0.38959     2.12616
O     -0.95087     0.59200    -1.25908
H     -1.52099     1.38239    -1.13878
O     -0.18084     0.90328    -2.42992
H      0.66462     1.11982    -2.01404
O     -1.58368    -1.76822     0.56576
H     -0.77538    -2.25380     0.78364
O     -1.59905    -1.92492    -0.86124
H     -0.30741    -3.00769    -1.37346
O     -0.18136     1.71306     1.72289
H      0.51536     1.59931     1.05516
O     -0.38315     0.38609     2.19523
H     -0.92774    -0.01323     1.49784
O     -2.59018     2.08912     0.61578
H     -1.73421     2.15127     1.07718
O     -2.29019     2.80140    -0.58839
H     -3.15570     3.14519    -0.82579
O      0.88017    -3.25133     0.02290
H      1.01248    -4.15150     0.33107
O      0.57214    -3.43569    -1.36460
H     -1.36550    -1.01341    -1.15048
O      2.99510     1.40890    -0.56804
H      2.76633     0.55718    -0.14505
O      1.69972     2.02643    -0.51319
H      1.92183     2.95599    -0.60123
