 16
-606.6445105206143
O     -1.50523     0.54082     0.17238
H     -1.05534     1.17573    -0.42321
O     -1.04659     0.98446     1.45214
H     -1.81358     0.78356     1.99440
O      1.29755    -0.40692     1.55873
H      0.48681     0.12243     1.64508
O      0.86691    -1.65410     2.10857
H      0.41533    -2.02553     1.33292
O     -0.16281     0.81262    -2.40642
H      0.35006     0.10575    -1.97398
O      0.05587     1.89013    -1.48734
H      0.09261     2.64265    -2.08580
O     -0.25748    -1.82217    -0.33894
H     -0.79587    -1.02861    -0.18158
O      0.91661    -1.22354    -0.90908
H      1.31951    -0.86121    -0.09043
