 32
-1213.3106100422515
O      2.67298     0.19710    -0.63998
H      2.29889     1.04378    -0.95404
O      3.01057     0.46336     0.72262
H      2.15223     0.75377     1.09415
O     -2.44728    -1.45034     0.70989
H     -1.82179    -1.96270     1.25717
O     -2.41352    -2.16008    -0.53037
H     -1.75760    -1.65282    -1.03397
O     -0.29690    -0.11921    -1.50600
H     -0.31897     0.12808    -0.55214
O     -0.94180     0.99002    -2.12846
H     -1.72808     1.11654    -1.54926
O      0.65054     1.44930     1.50571
H      0.45211     2.16141     0.87464
O     -0.27661     0.44806     1.07150
H      0.03205    -0.32255     1.60356
O      0.70819     3.24163    -0.52253
H      1.25320     4.02093    -0.65251
O      1.25881     2.36404    -1.50160
H      0.44477     1.97716    -1.89312
O      1.70363    -2.18699    -0.09112
H      2.17480    -1.32820    -0.23551
O      1.33050    -2.59670    -1.40544
H      0.98802    -1.76633    -1.76721
O      0.47591    -1.59446     2.51592
H      1.32078    -1.98254     2.76905
O     -0.14594    -2.60051     1.71179
H      0.45020    -2.59437     0.92245
O     -2.89459     0.99029    -0.30609
H     -2.82284     0.15883     0.21379
O     -2.65044     1.98857     0.68088
H     -3.48705     2.46245     0.66857
