 28
-1061.6392712424126
O     -1.08502    -1.02747    -2.23723
H     -1.05804    -0.06453    -2.06862
O     -2.26563    -1.38783    -1.51895
H     -2.58371    -2.11739    -2.05772
O      1.84034     0.14520     2.61115
H      0.94480    -0.22121     2.56720
O      2.58679    -1.03935     2.31158
H      3.48824    -0.73691     2.45899
O     -1.79485    -0.84403     1.09281
H     -1.96801    -1.17456     0.19386
O     -0.37752    -0.66355     1.04759
H      0.67118    -1.65756    -1.45444
O     -0.15700     1.64548    -0.29540
H      0.73777     1.57194    -0.71023
O     -1.01839     1.51933    -1.43446
H     -1.88225     1.68427    -1.00545
O     -3.03011     1.56457     1.22774
H     -2.61859     0.67844     1.24091
O     -3.36962     1.66908    -0.16294
H     -4.14496     2.23652    -0.12313
O      1.96062    -2.43908    -0.30073
H      2.08703    -1.80889     0.42374
O      1.63355    -1.57214    -1.38162
H     -0.30168     0.21688     0.62051
O      3.11351     1.08709     0.06997
H      2.48342     1.09521     0.80465
O      2.25371     0.98409    -1.06578
H      2.18072     0.01069    -1.19744
