 40
-1516.641588318528
O      3.36059     0.69206    -0.57241
H      4.16266     1.01062    -0.13987
O      3.86279    -0.17879    -1.59695
H      3.11822    -0.80628    -1.62365
O      0.30439    -0.29186     2.42163
H     -0.24718    -1.03855     2.10760
O      1.10254    -0.02595     1.26757
H      1.64023     0.73326     1.58213
O      2.80177     3.04053     1.14192
H      2.05059     2.92689     0.52186
O      2.42668     2.11169     2.15701
H      2.17726     2.68852     2.88706
O      1.48817    -2.18235    -0.26382
H      1.43051    -1.39513     0.31492
O      1.53720    -1.59567    -1.56802
H      0.59720    -1.32818    -1.68641
O     -2.31837    -1.08819     0.69224
H     -2.39318    -0.28513     1.24476
O     -1.62171    -1.97509     1.57874
H     -1.40294    -2.70255     0.95695
O      1.00933     1.47523    -1.43038
H      1.91315     1.20103    -1.14703
O      0.74903     2.51289    -0.48440
H     -0.08601     2.22771    -0.06191
O     -4.14871     2.21558    -1.65965
H     -5.04084     1.85965    -1.64382
O     -3.46016     1.22195    -0.90205
H     -2.80629     0.88480    -1.55545
O     -1.28395     0.36432    -2.16213
H     -0.43867     0.83136    -1.97289
O     -1.00746    -0.92571    -1.62013
H     -1.48455    -0.91704    -0.75802
O     -1.58563     2.08681     0.82131
H     -2.36927     1.91985     0.25943
O     -1.89091     1.26496     1.95062
H     -1.00307     0.98588     2.23474
O     -0.38997    -4.95065     0.34663
H     -0.74483    -5.55137    -0.31428
O     -0.67454    -3.69285    -0.26609
H      0.22762    -3.29860    -0.35750
