 16
-606.6360806721859
O     -1.23541     0.66548     0.71376
H     -1.29204    -0.23418     0.33784
O     -2.46392     1.22871     0.25581
H     -2.48788     2.03763     0.77287
O      2.42766    -0.54556     0.80075
H      2.09701     0.24596     0.34864
O      1.22572    -1.00294     1.41874
H      1.45993    -1.00238     2.35456
O      1.28342     1.12647    -1.24937
H      0.81794     0.34699    -1.57981
O      0.21615     2.07248    -1.09007
H     -0.33808     1.65288    -0.40400
O     -1.18982    -1.71142    -0.53507
H     -1.62408    -1.90993    -1.37067
O      0.17327    -1.55096    -0.95353
H      0.60818    -1.53532    -0.08287
