 24
-909.9845517622593
O     -1.30042    -0.97700    -0.87778
H     -1.81800    -0.20015    -0.56716
O     -0.62007    -1.38459     0.31189
H      0.22469    -1.71757    -0.05455
O      2.57100    -1.38214    -1.14750
H      2.00314    -0.76243    -1.66089
O      1.60337    -2.36977    -0.78252
H      1.67168    -3.02142    -1.48815
O      0.52356     1.30768    -1.64249
H      0.84402     1.07640    -0.74735
O      0.64652     0.06796    -2.33472
H     -0.13384    -0.40622    -1.98071
O     -2.59515     1.18230    -0.10263
H     -2.50627     1.23948     0.85958
O     -1.98000     2.39106    -0.55118
H     -1.26676     2.04760    -1.10895
O     -0.66859     0.86619     2.64726
H     -0.48237     0.68839     3.57483
O     -1.72265    -0.05017     2.35537
H     -1.27077    -0.62748     1.70933
O      2.10235    -0.15156     1.50000
H      2.64685    -0.44574     0.75889
O      1.28924     0.82190     0.84418
H      0.53535     0.89027     1.46691
