 40
-1516.639415846909
O      0.63476     0.22334     0.69540
H      0.51412     0.76452    -0.11522
O      1.62248     0.99840     1.38233
H      1.10842     1.19801     2.18707
O      3.39101     1.09034    -1.50149
H      3.29910     0.61917    -2.34485
O      3.08955     0.00013    -0.61736
H      2.79799     0.46543     0.18618
O     -2.48445     1.68954     2.05704
H     -2.29542     2.06961     1.17482
O     -3.28245     0.57219     1.65816
H     -2.79528    -0.17221     2.06324
O     -0.16638     1.44229     3.37945
H     -1.05400     1.48576     2.96021
O     -0.27556     0.28676     4.20180
H     -0.39840     0.66923     5.07456
O      1.19443    -0.38470    -3.42508
H      1.20636    -1.19605    -2.85989
O      2.58440    -0.23984    -3.72129
H      2.57255    -0.29576    -4.68018
O     -1.09086    -1.22066    -1.62025
H     -1.81658    -0.58822    -1.44608
O     -0.87827    -1.82319    -0.33678
H     -0.30455    -1.16357     0.11065
O      1.09612     2.56764    -1.84472
H      1.95158     2.16008    -1.61458
O      0.21389     1.44975    -1.73629
H      0.49204     0.85354    -2.46578
O     -1.34523    -2.58429     2.55894
H     -1.42080    -2.54331     1.59464
O     -1.96662    -1.35707     2.91914
H     -1.26433    -0.90885     3.42670
O      1.60898    -2.27318    -1.62429
H      2.08298    -1.72201    -0.98025
O      1.20885    -3.39743    -0.85159
H      0.29539    -3.13192    -0.65336
O     -2.12257     1.88707    -0.53156
H     -1.31098     1.79449    -1.06731
O     -2.86124     0.72759    -0.94009
H     -3.27252     0.50424    -0.08322
