 36
-1364.9747367184668
O      1.50675     2.36665     0.95708
H      1.48319     2.10984     0.01433
O      2.00580     1.15011     1.52371
H      1.28083     0.86515     2.12017
O      0.10841    -1.91797    -1.37726
H      0.90260    -1.60149    -0.87808
O     -0.92657    -1.82250    -0.39860
H     -1.18548    -0.87208    -0.44889
O     -1.12054     0.08189     2.05629
H     -1.37700     0.95006     2.40643
O      0.08345    -0.17001     2.80430
H      0.22671    -1.09925     2.55899
O      2.22413    -0.98953    -0.10218
H      2.16050    -0.21271     0.49551
O      2.89138    -1.94345     0.72757
H      2.17708    -2.57853     0.88393
O     -1.13244     2.83114     1.22731
H     -0.15519     2.75887     1.26455
O     -1.46692     2.73917     2.60954
H     -2.25843     3.28308     2.63446
O     -1.68776     0.68710    -0.78421
H     -1.57334     1.53131    -0.31375
O     -2.99414     0.78780    -1.35078
H     -2.82242     0.39353    -2.21468
O      0.42417     2.25916    -2.30820
H     -0.22513     1.63260    -2.67019
O      1.17269     1.37309    -1.47749
H      1.86132     1.02092    -2.05898
O     -0.45842    -0.30163    -3.41937
H     -0.30572    -0.94063    -2.67829
O     -1.76068    -0.66929    -3.87435
H     -1.55670    -1.13967    -4.68721
O      0.95052    -3.74278     1.40312
H      1.04204    -4.27284     2.19831
O      0.08069    -2.71886     1.86267
H     -0.39042    -2.50081     1.02547
