 36
-1364.982029139311
O      2.88293     2.03057    -1.11052
H      2.05673     1.89804    -1.59831
O      2.38032     2.12739     0.23247
H      2.75916     1.33000     0.64177
O      1.50242    -0.69274    -2.31596
H      0.55905    -0.78295    -2.50278
O      1.50534    -1.17505    -0.96752
H      2.46231    -1.19082    -0.75680
O     -3.43689     2.16483    -0.96779
H     -4.17619     2.73582    -0.74337
O     -2.86297     1.95113     0.32058
H     -1.94091     2.27644     0.19702
O     -2.36144    -0.64756    -1.87781
H     -2.76242     0.16303    -1.53471
O     -1.12482    -0.62153    -1.17934
H     -1.14275    -1.48776    -0.71298
O     -0.24907     2.41334    -0.06235
H      0.67483     2.43950     0.27132
O     -0.02373     1.80306    -1.34665
H     -0.42878     0.92147    -1.21283
O     -1.81725     0.01670     2.47888
H     -0.92590     0.08317     2.07887
O     -2.57055    -0.48517     1.36559
H     -2.78761     0.35656     0.91075
O      1.15552    -1.41065     1.90118
H      0.38509    -2.01035     1.83087
O      0.59109    -0.23655     1.31648
H      0.70009    -0.46410     0.36093
O      3.96509    -0.92249     0.02571
H      4.49205    -0.23733    -0.40065
O      3.43792    -0.19991     1.14520
H      2.72860    -0.79464     1.45961
O     -1.24925    -2.95890     0.03340
H     -1.90649    -3.65392    -0.06514
O     -1.21485    -2.73756     1.44085
H     -1.83314    -1.97118     1.51504
