 40
-1516.6343409523256
O      2.13740     1.87888     1.28875
H      1.72246     1.58322     2.12399
O      2.16063     0.66472     0.53699
H      1.23500     0.61982     0.24055
O      1.79746    -0.46552    -2.29484
H      1.88188    -1.24494    -1.71302
O      0.60434     0.08572    -1.73427
H     -0.11452    -0.36116    -2.24277
O     -0.75947     0.51654     1.06538
H     -1.04314     0.83851     1.94005
O     -1.98739     0.16952     0.43550
H     -2.03526     0.86314    -0.26301
O     -0.35443     1.48829     3.71467
H     -0.31460     1.67611     4.65896
O      0.89618     0.82515     3.51050
H      0.60203    -0.10266     3.35528
O     -1.87766     2.33062    -1.20160
H     -1.09408     2.81964    -0.86977
O     -1.69916     2.33564    -2.62381
H     -0.76776     2.60071    -2.70423
O      0.55633     3.15981    -0.49994
H      1.33405     2.91068     0.04155
O      0.93426     2.74186    -1.82427
H      0.91945     1.76030    -1.75609
O      2.25144    -2.01330     0.68203
H      2.36343    -1.04267     0.59057
O      1.48402    -2.36977    -0.46457
H      0.57097    -2.31993    -0.12422
O     -1.89384    -3.02412    -0.61904
H     -1.37145    -3.82054    -0.73730
O     -1.07828    -2.33489     0.32683
H     -1.46104    -1.42530     0.30946
O     -0.06889    -1.60320     2.97999
H     -0.82068    -1.94864     2.47450
O      0.86828    -2.67778     2.90526
H      1.40409    -2.43390     2.12437
O     -1.39202    -1.24280    -2.87519
H     -1.83940    -1.83760    -2.25371
O     -2.47964    -0.52516    -3.45835
H     -2.24476     0.38271    -3.22206
