 32
-1213.3069817471132
O      0.91546    -0.50971     1.95649
H      0.32844    -1.22231     1.62778
O      2.00657    -0.57713     1.02436
H      2.43461     0.30885     1.14885
O     -2.05956    -0.80133    -3.05814
H     -2.51165    -0.71887    -3.90382
O     -1.52680    -2.13209    -3.13199
H     -0.59469    -1.92934    -2.96733
O     -3.13452    -0.45706    -0.60490
H     -2.78068    -0.69858    -1.48277
O     -2.01427     0.21129    -0.01571
H     -1.79754     0.91597    -0.64734
O     -0.09651     2.19386    -0.93071
H     -0.05596     2.25910     0.03968
O      1.13371     1.51156    -1.21478
H      0.84928     0.57306    -1.27217
O      2.92721     1.85141     1.46450
H      2.21688     2.35349     1.90594
O      3.09850     2.61336     0.26623
H      2.42448     2.20898    -0.31483
O      1.11732    -2.02766    -1.03564
H      1.62034    -1.57899    -0.32794
O      0.21123    -0.97177    -1.34602
H     -0.49048    -1.08655    -0.67914
O      0.64205     2.75182     2.50555
H      0.28061     2.69717     3.39433
O     -0.20997     1.87465     1.77535
H      0.23857     0.99654     1.87685
O     -2.15230    -2.58062     1.59510
H     -2.68080    -1.98136     1.04884
O     -0.85141    -2.34182     1.04637
H     -0.65019    -3.16127     0.57757
