 36
-1364.9768751969834
O      0.87130     2.27569    -0.03445
H      1.57397     1.68310    -0.36545
O      0.70037     1.90751     1.33696
H      1.01827     0.96879     1.38627
O     -0.04713    -1.41729    -1.53312
H     -0.55213    -1.13163    -2.31503
O     -1.06299    -1.82598    -0.61923
H     -1.27212    -0.99572    -0.15081
O     -1.22749    -0.43932     2.00843
H     -1.46872     0.19788     2.69782
O     -2.07137    -1.55405     2.31330
H     -1.40813    -2.25585     2.31124
O      1.72024    -0.49295     1.49448
H      1.43974    -1.42745     1.56244
O      3.13065    -0.58923     1.32491
H      3.17079    -0.60488     0.35049
O     -1.67307     2.34612     2.44034
H     -0.83218     2.27686     1.93848
O     -2.63094     2.29744     1.39253
H     -2.98542     3.19226     1.38144
O     -1.35868     1.92332    -1.46370
H     -0.54468     2.09363    -0.93756
O     -1.95154     0.84045    -0.74515
H     -2.24647     1.30069     0.06593
O      2.48615    -0.66480    -1.28709
H      1.56421    -0.98799    -1.26114
O      2.31355     0.69893    -1.67112
H      1.72523     0.63124    -2.44643
O     -0.78534     0.42832    -3.56510
H     -1.09344     1.01809    -2.83490
O      0.57078     0.83304    -3.72105
H      0.50689     1.57300    -4.33355
O      1.07629    -3.10087     1.50472
H      1.66814    -3.85264     1.40402
O     -0.20081    -3.64170     1.18795
H     -0.43714    -3.10026     0.40946
