 24
-909.9822318156997
O     -1.29284     0.42028     1.03287
H     -2.17577     0.05612     0.82225
O     -1.26312     1.53107     0.12690
H     -0.30809     1.74045     0.12166
O     -0.91630    -1.13634    -1.93315
H     -0.13757    -1.30947    -1.36681
O     -0.79723     0.26356    -2.18966
H     -1.30626     0.64758    -1.45275
O      3.12252    -0.11116     1.80454
H      2.26997    -0.57577     1.68595
O      2.63426     1.22435     1.99263
H      3.33657     1.61548     2.52007
O     -2.84534    -1.75878    -0.14196
H     -2.24818    -1.59574    -0.89461
O     -3.48947    -0.48961    -0.07413
H     -4.40418    -0.73953     0.07984
O      1.17381    -1.49679    -0.29955
H      1.65814    -0.68894    -0.55218
O      0.79875    -1.19254     1.04379
H      0.00850    -0.62246     0.93809
O      1.67808     0.94855    -1.27607
H      0.81211     0.83811    -1.71809
O      1.34224     1.87828    -0.24573
H      1.92339     1.59951     0.49195
