 20
-758.3129220549617
O     -0.40255    -2.34922    -0.74133
H     -0.99476    -3.10607    -0.70708
O      0.15383    -2.32235     0.56981
H     -0.36549    -1.61204     1.00007
O      2.01650     0.11284    -0.85172
H      2.77799     0.20509    -1.43673
O      2.51903    -0.72319     0.18770
H      1.87458    -1.44429     0.15421
O     -0.02766     2.54276     0.24472
H     -0.85743     2.40929     0.72721
O      0.80890     1.61788     0.95861
H      1.28323     1.15887     0.23419
O     -1.97521     0.77016     1.21255
H     -1.96029     0.50176     0.27150
O     -0.99332    -0.12933     1.75359
H     -0.20706     0.44847     1.67861
O     -1.50590     0.05102    -1.28087
H     -0.92997    -0.72795    -1.20158
O     -0.67226     0.99936    -1.94326
H     -0.45135     1.60003    -1.21086
