 40
-1516.6384366618106
O      3.79678     2.76697     2.15792
H      4.26105     2.55555     2.97171
O      2.76590     1.78342     2.18647
H      2.91561     1.31635     1.34395
O     -0.54705    -0.32135    -2.07994
H      0.01037    -0.15610    -1.28671
O     -0.30362     0.91418    -2.74613
H     -0.98301     1.47945    -2.33387
O     -1.10552     0.01615     1.58393
H     -0.40694    -0.66325     1.57150
O     -1.01746     0.53310     2.91313
H     -0.67902     1.42345     2.71555
O      0.29373     2.79909     0.69248
H     -0.66046     2.72229     0.49805
O      0.29093     2.82930     2.12728
H      1.21502     2.55405     2.28973
O     -2.09730     2.61610    -1.64542
H     -3.01026     2.71730    -1.93339
O     -2.23712     2.27074    -0.26584
H     -2.48152     1.31550    -0.33621
O      2.13080    -1.26513    -2.26222
H      1.39380    -0.87109    -2.75413
O      1.52482    -2.42957    -1.67985
H      1.43826    -2.17175    -0.74104
O     -3.02148    -1.11756     0.19930
H     -2.46046    -0.67641     0.87067
O     -2.91639    -0.19944    -0.89308
H     -2.13806    -0.52697    -1.39544
O      1.09292     0.46085    -0.24206
H      0.91488     1.39340     0.04817
O      2.52290     0.37971    -0.21286
H      2.61693    -0.14563    -1.03671
O      0.66422    -3.40035     1.08625
H     -0.17289    -3.37766     0.57483
O      1.08594    -2.04350     0.91187
H      1.86532    -1.99260     1.47411
O     -1.40236    -3.17794    -1.72891
H     -0.43989    -3.08092    -1.76841
O     -1.60814    -3.34298    -0.32897
H     -2.28005    -2.65716    -0.14114
