 16
-606.6403014027894
O     -2.36297     0.90341     1.15760
H     -3.08069     0.78230     1.78633
O     -1.60970    -0.29130     1.38306
H     -0.74081     0.07687     1.66461
O      0.89458     0.56682     1.50317
H      1.14101     0.90100     0.62461
O      1.45725    -0.74717     1.53128
H      0.99272    -1.18977     0.80569
O      0.77542     1.24694    -1.28853
H      0.01399     0.64025    -1.37021
O      1.72764     0.57029    -2.12489
H      1.92097     1.25496    -2.77253
O      0.05401    -1.86401    -0.91875
H      0.74087    -1.58189    -1.53477
O     -0.94490    -0.85524    -1.17103
H     -1.34247    -0.76612    -0.28063
