 32
-1213.3092075787158
O     -1.78682    -0.51714     1.42687
H     -0.98830    -1.08861     1.53344
O     -1.90929    -0.50194     0.00137
H     -1.35421     0.28027    -0.24651
O      2.20408    -0.19059    -0.26058
H      2.55171     0.71353    -0.20769
O      1.71163    -0.24535    -1.60523
H      1.31338    -1.13677    -1.59481
O     -3.25595    -0.81769    -2.80233
H     -3.29514    -0.73953    -1.83922
O     -1.88152    -0.51261    -3.04852
H     -1.45068    -1.35135    -2.80847
O     -0.97203     2.09487    -1.89581
H     -1.44276     1.38672    -2.36374
O     -0.29704     1.34672    -0.88732
H      0.45150     0.90460    -1.35850
O      2.03710     2.47070     0.51876
H      1.08391     2.31036     0.64923
O      2.54412     2.27824     1.84047
H      2.80299     3.17555     2.07953
O     -0.96986    -2.54881    -1.42712
H     -1.22586    -1.95080    -0.69317
O      0.44803    -2.57652    -1.33467
H      0.61913    -3.41400    -0.89221
O      1.11848    -1.45194     2.68532
H      0.76533    -0.58745     2.96800
O      0.58451    -1.55928     1.36838
H      1.19799    -0.99660     0.84586
O      0.47602     1.14587     3.13115
H      1.33779     1.49827     2.85089
O     -0.32618     1.67922     2.06587
H     -0.98120     0.96736     1.92954
