 36
-1364.976832163553
O      2.22053     1.91594     0.55419
H      2.65898     1.62070    -0.27298
O      2.05723     0.66139     1.21858
H      1.35856     0.83735     1.87256
O     -1.26900    -2.48101    -1.65582
H     -0.99177    -2.70748    -0.74536
O     -2.51691    -1.82112    -1.42323
H     -2.33313    -0.92964    -1.78536
O      0.22395    -0.96475     3.54177
H      0.10770    -0.75974     4.47363
O      0.02801     0.31086     2.94278
H     -0.80638     0.16370     2.44742
O      3.52942    -0.20644    -1.91972
H      2.71789    -0.43694    -2.39223
O      3.32937     1.20288    -1.77690
H      4.09582     1.56132    -2.23584
O     -2.90889    -1.30944     1.21270
H     -2.86542    -1.53659     0.26299
O     -2.02291    -0.20102     1.29043
H     -2.27872     0.37636     0.53899
O     -0.18876     2.96286     0.09272
H      0.72338     2.64167     0.27741
O     -0.83531     2.65531     1.32828
H     -1.41873     3.41131     1.42438
O      0.84063    -0.87353    -2.34393
H      0.10212    -1.47159    -2.10280
O      0.70711     0.17369    -1.38310
H      1.11601    -0.19640    -0.57338
O     -2.19073     1.42571    -0.84201
H     -1.44173     2.03379    -0.67107
O     -1.77161     0.70146    -2.00862
H     -0.79989     0.60025    -1.87026
O      1.04751    -1.93825     0.51294
H      1.41180    -1.73332     1.38604
O     -0.18788    -2.59964     0.80151
H     -0.73342    -1.89323     1.18175
