 16
-606.6364830770209
O     -1.74871     0.45018     0.45930
H     -1.84183    -0.51031     0.43004
O     -1.44780     0.62741     1.85202
H     -1.63592     1.56325     1.95993
O      0.87873    -0.65478     1.55480
H      0.15065    -0.04189     1.77339
O      1.95247     0.26138     1.31006
H      1.74258     0.55469     0.40514
O      0.34551     1.86745    -1.44498
H      0.82140     2.31030    -2.15399
O      1.15870     0.71314    -1.25639
H      0.51127    -0.00621    -1.37094
O     -0.56815    -2.09075    -0.19416
H      0.12778    -1.68437     0.36278
O     -0.24828    -1.55858    -1.47839
H      0.16320    -2.31098    -1.91469
