 24
-909.9768696150888
O     -2.24944     0.93727    -0.02902
H     -1.94311     0.22803    -0.63062
O     -1.90743     0.40639     1.25604
H     -1.34455     1.14013     1.57151
O     -1.34905    -0.92677    -1.73320
H     -0.65635    -1.53056    -1.37594
O     -0.65523    -0.28949    -2.80435
H     -1.14190    -0.63660    -3.55724
O      1.59366     0.85437    -1.14891
H      0.89182     1.52574    -1.14933
O      1.91479     0.82260     0.25917
H      2.06577    -0.12709     0.38113
O      0.55562    -2.40211    -0.58319
H      0.40486    -2.23065     0.36482
O      1.85433    -1.83711    -0.76488
H      1.67244    -1.16124    -1.43096
O     -0.17969    -1.58051     1.89592
H     -0.91001    -0.97026     1.67377
O      0.72711    -0.68453     2.53126
H      0.78615    -1.06992     3.40962
O     -0.06015     2.31077     1.21615
H      0.74099     1.75936     1.12956
O     -0.24670     2.65345    -0.17278
H     -1.11088     2.22579    -0.31967
