 36
-1364.973916988581
O      0.68758     2.05149     2.27666
H      0.97379     2.09191     3.19484
O     -0.01214     0.81202     2.24670
H      0.69163     0.19560     1.91842
O      1.97106    -0.59449     1.21672
H      2.24592    -0.10757     0.40363
O      1.67790    -1.92204     0.75688
H      1.27415    -1.75880    -0.12363
O     -1.38337    -1.77737     1.72480
H     -1.97603    -1.29628     2.32240
O     -0.29724    -2.11669     2.59361
H      0.44013    -2.16018     1.95708
O      0.72648    -1.20531    -1.59485
H      1.42546    -0.97829    -2.24405
O      0.01731    -2.22389    -2.31842
H     -0.87122    -2.05641    -1.96166
O     -3.35629     0.22403     2.02509
H     -3.65325    -0.02006     1.13721
O     -2.60753     1.40985     1.75147
H     -1.70918     1.12858     2.00301
O     -0.56095     1.35857    -1.14822
H     -0.62422     0.38552    -1.19599
O     -1.93283     1.73836    -1.03317
H     -2.00555     1.95706    -0.09130
O      2.74721     0.88893    -3.37796
H      2.99179     1.20657    -2.49823
O      2.77968    -0.52066    -3.13124
H      3.30950    -0.85796    -3.86090
O      2.04504     1.17787    -0.66761
H      1.12681     1.42061    -0.91638
O      2.42755     2.21892     0.21604
H      1.77482     2.12000     0.93309
O     -3.24989    -0.59375    -0.71782
H     -2.99382     0.28954    -1.03582
O     -1.97853    -1.23484    -0.80006
H     -1.75895    -1.39973     0.13899
