 32
-1213.3122485465415
O      0.77536    -1.80832     3.47860
H      0.95811    -1.91032     4.41699
O      1.62783    -0.71797     3.14088
H      1.75893    -0.89940     2.18389
O     -0.63318    -1.22016    -0.71116
H     -1.09040    -0.34958    -0.63648
O     -1.65325    -2.10323    -1.15454
H     -1.46934    -2.09174    -2.10496
O     -0.69488    -1.26064    -3.63521
H      0.14754    -0.92928    -3.27031
O     -1.33316    -0.00076    -3.87240
H     -1.46024    -0.03120    -4.82616
O      1.71620    -1.02890     0.51784
H      0.85187    -1.18260     0.07921
O      2.16172     0.19205    -0.07987
H      1.87698     0.86535     0.57544
O      1.15018     0.31063    -2.52935
H      1.54829     0.33859    -1.63260
O      0.46199     1.56253    -2.61038
H     -0.31274     1.26161    -3.11269
O     -0.66351     2.42643    -0.33191
H     -0.21691     2.23605    -1.17890
O     -1.47210     1.25476    -0.18755
H     -1.38493     1.07436     0.76341
O      1.23450     2.11433     1.52737
H      0.54039     2.46962     0.93550
O      0.52915     2.02174     2.76557
H      0.93450     1.22484     3.13109
O     -2.19889    -1.36343     1.84624
H     -1.90031    -1.76351     1.02141
O     -1.11107    -0.46354     2.10758
H     -0.53929    -0.97616     2.71105
