 32
-1213.3119338990348
O      0.63035     2.70194     1.41967
H      0.89365     3.43183     1.98966
O     -0.05956     1.84632     2.33552
H     -0.97073     1.89220     1.98196
O     -0.51207    -1.93354    -1.46411
H      0.36560    -2.35821    -1.44076
O     -0.40125    -1.15146    -2.65265
H     -1.17307    -0.55296    -2.53934
O     -1.70495     1.81871    -1.61851
H     -0.75007     1.59793    -1.61031
O     -2.31432     0.56262    -1.94675
H     -2.69791     0.33645    -1.07674
O     -0.21412    -0.41233     0.68282
H     -0.44238    -0.99446    -0.06718
O     -0.95855    -1.01273     1.74419
H     -0.18555    -1.30805     2.26739
O      0.90368     1.42680    -1.26965
H      0.86489     1.31613    -0.30165
O      1.64285     0.26983    -1.66643
H      0.95240    -0.23424    -2.14904
O      2.74636    -2.03352    -0.30210
H      2.48277    -1.13316    -0.56887
O      2.00078    -2.83775    -1.20841
H      2.64821    -3.05597    -1.88940
O      1.56405    -1.51884     2.37483
H      1.91643    -1.98278     1.60352
O      2.23298    -0.25573     2.26960
H      1.49641     0.35802     2.41068
O     -2.84708     0.59963     0.65188
H     -2.23556     0.07580     1.19779
O     -2.44091     1.94947     0.94631
H     -2.18173     2.23856     0.04988
