 32
-1213.3035498769834
O      2.49776    -1.40116     0.24601
H      1.59814    -1.78019     0.14067
O      2.28582    -0.50678     1.35071
H      2.46296     0.36552     0.94082
O     -0.18748    -2.13025    -1.77160
H      0.61552    -1.69332    -2.10041
O      0.02044    -2.05766    -0.35664
H     -0.56150    -1.31404    -0.10628
O     -2.66260    -1.18677     0.23976
H     -2.84633    -0.23590     0.16717
O     -3.25080    -1.72557    -0.95453
H     -2.45573    -1.96936    -1.45055
O     -0.69448     1.14931    -1.57800
H      0.16437     0.99253    -2.00518
O     -0.29971     1.97454    -0.46625
H     -1.11433     1.94434     0.07035
O      2.41108     2.56392     1.27646
H      3.35578     2.73345     1.30660
O      2.32115     1.84533     0.04938
H      1.37567     1.97998    -0.18230
O      1.77828     0.63057    -2.62470
H      2.26834     0.89525    -3.40957
O      2.11385    -0.74662    -2.50905
H      2.53382    -0.75848    -1.63242
O     -0.87263    -1.41312     2.58129
H     -1.62560    -1.61940     2.00535
O     -0.36665    -0.28319     1.86620
H      0.60578    -0.45376     1.82693
O     -2.49852     1.31586     2.14683
H     -1.68216     0.77772     2.07764
O     -2.69372     1.60676     0.75362
H     -3.48034     2.15846     0.77180
