 36
-1364.9693527990198
O     -3.54739     0.94852    -0.78493
H     -3.19132     1.23020     0.06795
O     -2.40449     0.26766    -1.32351
H     -2.10351     0.87474    -2.02225
O     -0.95305    -1.67487     0.99407
H     -0.34178    -2.43936     1.02161
O     -2.11142    -2.25996     0.40935
H     -2.32674    -1.58282    -0.25044
O     -1.53902     0.88722     1.50659
H     -1.53929    -0.08127     1.64839
O     -2.06618     1.39119     2.73449
H     -1.36971     2.02333     2.95589
O      0.18712    -1.80710    -1.62803
H     -0.02859    -1.20472    -0.89588
O      1.06130    -1.01309    -2.43462
H      0.43940    -0.36450    -2.81359
O     -0.55987     0.95696    -3.36412
H     -0.66595     1.35755    -4.23102
O     -0.37186     2.11037    -2.53909
H      0.06329     1.69909    -1.76316
O      0.34305     3.09668     2.53543
H      0.89716     2.52559     1.97960
O      1.16963     3.27736     3.68729
H      1.36842     4.21761     3.63109
O      1.51115     1.37478     0.42982
H      2.03477     0.54705     0.52776
O      0.39459     0.88379    -0.33099
H     -0.31969     0.93442     0.34058
O      3.53838    -0.67162    -0.67847
H      2.81392    -0.62842    -1.32000
O      2.82856    -0.97598     0.51962
H      2.60169    -1.91771     0.40199
O      1.70529    -3.41608    -0.20218
H      1.12599    -2.97299    -0.86491
O      0.77066    -3.70558     0.83831
H      0.55524    -4.63037     0.67583
