 24
-909.9774253012541
O     -0.63126    -1.22024     0.50354
H     -0.30751    -0.96987     1.39568
O     -1.89089    -1.83502     0.75991
H     -2.47726    -1.14839     0.41127
O      0.30546     0.87993    -2.08249
H     -0.66600     0.89379    -2.20034
O      0.59834    -0.51135    -2.08548
H     -0.05372    -0.84704    -1.45238
O      2.41245    -0.74220    -0.07004
H      2.02724    -0.56452    -0.95270
O      2.17537    -2.14024     0.09728
H      1.20993    -2.15289     0.16941
O     -2.34835     0.78851    -1.86080
H     -3.03760     1.39502    -2.14596
O     -2.58070     0.71139    -0.45976
H     -1.80280     1.19119    -0.09724
O      1.29867     0.43427     2.06945
H      1.74983     0.07333     1.27218
O      0.77504    -0.73898     2.69291
H      1.56752    -1.24732     2.89584
O     -0.55224     1.91600     0.77353
H     -0.00398     1.53434     1.48537
O      0.43649     2.61171     0.00491
H      0.53136     2.00671    -0.75145
