 32
-1213.3088222623053
O     -1.15304    -1.95090    -0.13547
H     -2.06578    -1.71492    -0.40107
O     -1.34275    -2.80756     0.99300
H     -1.47833    -2.14665     1.69232
O      2.23275    -1.99215    -0.14252
H      2.83883    -2.70582    -0.36003
O      1.31128    -2.04824    -1.22731
H      0.47732    -2.25984    -0.75897
O     -2.95885     0.33429    -0.24869
H     -3.01994     0.18468     0.71494
O     -3.53688    -0.87037    -0.74953
H     -3.81037    -0.59477    -1.62949
O      0.51526     0.53553    -1.54300
H      0.94194    -0.33286    -1.66933
O     -0.74487     0.36664    -2.19573
H     -1.33308     0.56733    -1.45458
O      2.07555     2.69829    -1.26742
H      1.42198     1.99960    -1.44298
O      1.89549     2.88462     0.14092
H      2.41418     2.12086     0.46050
O      3.14627     0.53996     0.17618
H      2.78779    -0.35537     0.03645
O      4.01450     0.66936    -0.95320
H      3.64165     1.47334    -1.34310
O     -0.61436     2.08138     0.74863
H      0.21763     2.54950     0.52252
O     -0.09108     0.87037     1.31019
H      0.10658     0.36154     0.50920
O     -3.06899    -0.15555     2.38507
H     -3.35265     0.29028     3.19025
O     -1.76762    -0.62511     2.72722
H     -1.18953     0.01863     2.25372
