 12
-454.96903363934746
O      2.97331    -0.80757    -0.43639
H      2.07585    -1.04544    -0.15520
O      2.97787     0.59710    -0.14409
H      3.49560     0.62626     0.66760
O      0.12862    -0.63253     0.43033
H     -0.67400    -0.59496    -0.11001
O      0.26522     0.74442     0.81797
H      1.07600     0.97223     0.33975
O     -2.43978     0.21294    -0.67530
H     -2.34732     1.05244    -0.21152
O     -3.51964    -0.38844     0.04916
H     -4.18687    -0.45365    -0.64296
