 32
-1213.3057908492976
O      1.60544    -1.26050     1.32187
H      0.69287    -1.03722     1.60466
O      2.38374    -0.33919     2.08768
H      2.70558     0.21517     1.35498
O      3.23107    -1.95885    -0.66564
H      2.70510    -1.85865     0.15473
O      2.30094    -1.37660    -1.58319
H      2.54408    -1.79934    -2.41126
O     -2.62294    -0.37175    -3.25190
H     -3.22566    -0.58112    -3.97139
O     -3.37749     0.60999    -2.52809
H     -2.69668     1.28479    -2.40050
O     -1.18522     2.06856    -1.22089
H     -0.21661     1.98041    -1.14337
O     -1.58073     1.38088    -0.03169
H     -1.24548     0.48120    -0.24050
O      2.64694     0.94991    -0.24352
H      2.58866     0.21585    -0.88012
O      1.37336     1.58580    -0.39825
H      1.19982     1.84743     0.53305
O     -1.47561    -1.95119    -1.12782
H     -1.98275    -1.47153    -1.80268
O     -0.54409    -0.92110    -0.75891
H      0.31159    -1.28959    -1.04097
O     -1.90161    -1.74540     2.17907
H     -1.98777    -1.90531     1.23095
O     -0.85919    -0.76191     2.18001
H     -1.29706     0.03750     2.51142
O      0.76308     2.04606     2.12573
H      1.05370     1.23787     2.57521
O     -0.64730     2.05947     2.36607
H     -0.99397     1.97439     1.45310
