 32
-1213.3020665649876
O      1.42269     0.66338     2.32924
H      2.09378     1.13461     1.79671
O      0.28786     0.71907     1.46087
H     -0.19313     1.51866     1.72642
O      0.36027    -0.17562    -1.22989
H     -0.02411    -0.37800    -0.35547
O      0.23746    -1.43422    -1.88362
H     -0.67739    -1.34434    -2.20177
O     -2.19557    -0.37696    -2.24755
H     -2.77818    -0.02696    -2.92801
O     -3.10561    -1.03446    -1.36642
H     -3.10905    -0.41595    -0.61163
O     -0.85089     2.19125    -1.13153
H     -0.44805     1.31906    -1.33593
O      0.24359     2.96150    -0.64649
H      0.99323     2.34615    -0.67477
O      3.08776     1.03647    -0.47998
H      2.89523     0.10602    -0.24014
O      3.43197     1.60831     0.78430
H      4.38880     1.51279     0.81223
O     -0.94103    -1.86620     0.79552
H     -0.03950    -2.10459     1.08323
O     -1.29886    -2.97561    -0.03102
H     -2.02902    -2.57885    -0.52001
O      2.39807    -1.53376     0.09470
H      1.73119    -1.77270    -0.57092
O      1.72439    -1.85430     1.32594
H      1.75465    -1.00377     1.80112
O     -2.24676     1.73585     1.15699
H     -1.93939     2.02734     0.27724
O     -2.76772     0.44339     0.87345
H     -2.11031    -0.14966     1.27153
