 32
-1213.3092400283476
O      2.93741     0.70184     2.45439
H      3.02663     1.12479     1.58201
O      1.83059    -0.15310     2.15351
H      2.01552    -0.94730     2.66640
O     -0.14263     2.04968    -1.99665
H      0.55667     2.47430    -1.46081
O     -0.67585     1.15809    -1.01914
H     -0.02200     0.42107    -1.05637
O     -3.06157    -0.24503     0.12477
H     -3.84628     0.23604     0.41506
O     -3.20363    -0.24224    -1.30209
H     -2.49629     0.37226    -1.55917
O     -1.00382    -2.29945    -2.65872
H     -1.05591    -3.11203    -3.17156
O     -1.79066    -2.64022    -1.51837
H     -2.50341    -1.98340    -1.59148
O      2.66945     1.63952    -0.10180
H      2.22326     0.89336    -0.53540
O      1.68891     2.67646    -0.14818
H      1.20534     2.53803     0.69080
O      1.24766    -0.61039    -0.76988
H      0.97710    -1.08326     0.05003
O      1.52017    -1.67550    -1.67070
H      0.61942    -1.86302    -1.97282
O     -0.20605    -1.95323     0.91947
H     -0.92504    -2.28932     0.35586
O     -0.86268    -1.50939     2.09953
H     -1.02234    -0.57322     1.90895
O      0.28107     1.97138     2.00901
H      0.75032     1.15295     2.27397
O     -1.00052     1.47135     1.60870
H     -0.93194     1.47895     0.63140
