 32
-1213.3081034459972
O     -0.75629    -2.91694     2.71105
H     -0.51367    -2.79676     3.63433
O      0.41847    -2.44214     2.05429
H      0.23309    -2.75591     1.14625
O     -0.56970    -2.79189    -0.41018
H     -1.45927    -2.39794    -0.25201
O     -0.00352    -1.84048    -1.31632
H      0.85172    -1.63903    -0.88428
O     -0.97135     0.64412    -1.56905
H     -0.77455    -0.32120    -1.53386
O     -1.80105     0.83359    -0.42352
H     -1.14369     0.86956     0.29302
O      0.02863     3.77664    -2.17542
H      0.58691     3.98893    -2.93011
O     -1.07711     3.10325    -2.78285
H     -0.98810     2.22380    -2.37618
O      2.35810     2.37150    -0.44553
H      2.39993     1.44760    -0.73338
O      0.98521     2.46194    -0.06322
H      0.60182     2.98399    -0.80751
O      0.02294     0.24859     1.92254
H      0.12826    -0.70942     2.08854
O      1.39313     0.66064     1.79357
H      1.27928     1.51245     1.31454
O      2.79332    -0.30562    -1.02111
H      3.71253    -0.58675    -0.98555
O      2.22076    -1.10852     0.00697
H      2.01283    -0.43976     0.70756
O     -2.67497    -1.25195     1.69392
H     -2.03739    -1.93287     1.95897
O     -2.79566    -1.51273     0.28899
H     -2.66865    -0.60541    -0.05660
