 36
-1364.9719570381642
O      1.65426    -0.91285    -1.69431
H      0.73682    -0.57969    -1.82343
O      2.44130     0.07950    -2.37228
H      3.28306    -0.09081    -1.91769
O     -0.94664     2.22651     1.96833
H     -0.19954     1.63886     2.18728
O     -1.42658     1.56726     0.79109
H     -0.81138     1.90335     0.11109
O     -2.53748    -1.55128     0.62375
H     -3.28777    -0.96705     0.84244
O     -1.51579    -1.01975     1.48199
H     -1.43964    -0.09573     1.15126
O      0.53447     2.42563    -2.28678
H      1.27782     1.80059    -2.26571
O      0.34830     2.65194    -0.89772
H      0.64247     3.56131    -0.76138
O     -0.80602     0.00259    -1.64526
H     -1.20496     0.76883    -2.07607
O     -1.74606    -1.04531    -1.92221
H     -2.02269    -1.27840    -1.01307
O     -4.82816     0.74025    -0.20255
H     -5.70869     0.99087     0.09140
O     -4.16202     0.57565     1.04894
H     -3.46665     1.24714     0.98850
O      1.91544     0.71852     0.86973
H      1.46355     0.15288     0.21843
O      1.17745     0.46566     2.06404
H      1.31263    -0.50706     2.17513
O      4.13852    -0.77733    -0.42155
H      3.69680    -0.23299     0.24905
O      3.62636    -2.08246    -0.13694
H      2.91396    -2.14547    -0.79125
O      0.66659    -2.46990     0.85382
H     -0.15643    -2.03217     1.16739
O      1.60027    -2.14810     1.90611
H      2.43134    -2.31556     1.43808
