 36
-1364.9726500564636
O      0.14506     1.92987     0.74160
H      0.11990     1.69786    -0.20787
O      1.46374     2.42812     0.94496
H      1.88617     1.63992     1.32319
O      0.20036    -2.04964    -0.40839
H     -0.06739    -1.84013    -1.32216
O     -0.85103    -2.93972    -0.00946
H     -1.23756    -2.42814     0.71376
O     -2.02996     0.09003     0.98502
H     -2.36531     0.79833     1.55929
O     -1.35679    -0.77924     1.87965
H     -0.43042    -0.51163     1.76406
O      1.62553    -0.72584     2.03632
H      1.74097    -1.69067     2.06807
O      2.67538    -0.29492     1.17580
H      2.25268    -0.36536     0.30681
O     -2.13857     2.95190     1.62174
H     -1.23417     2.70643     1.33184
O     -2.65910     3.53018     0.42677
H     -2.52117     4.47052     0.57519
O     -1.48212     2.10656    -1.54751
H     -2.01702     2.62462    -0.91695
O     -2.19508     0.86988    -1.55848
H     -2.01805     0.51119    -0.66427
O      1.48591     0.60713    -1.39116
H      0.97020     0.57157    -2.21466
O      2.52717     1.55060    -1.69565
H      2.48709     2.09873    -0.89948
O     -0.48574    -0.11766    -3.29658
H     -1.26121     0.28445    -2.84663
O     -0.65575    -1.48045    -2.91326
H     -0.57760    -1.94111    -3.75212
O      2.60024    -4.26829     1.45133
H      2.43528    -5.10535     1.89392
O      1.39719    -3.55748     1.75050
H      0.99037    -3.47658     0.87411
