 32
-1213.305574836912
O      2.61397     1.66615     0.41009
H      3.30371     1.55991    -0.25676
O      2.30996     0.30041     0.70619
H      1.49298     0.41540     1.22811
O     -0.81133    -3.04242     0.70115
H     -1.28106    -3.79682     0.33568
O     -1.05660    -2.06066    -0.30266
H     -0.14794    -1.90037    -0.65817
O     -0.02799     1.70812    -1.20396
H      0.75014     2.12882    -1.62233
O     -0.99975     1.76525    -2.24561
H     -1.73392     1.32161    -1.77628
O     -0.17040     0.84076     1.62202
H     -0.41124     1.29463     0.79800
O     -1.41477     0.82336     2.31066
H     -1.42425    -0.09267     2.65315
O      2.15341     2.33479    -2.61603
H      2.09949     2.47439    -3.56809
O      3.03224     1.21373    -2.49840
H      2.38944     0.47247    -2.50830
O      1.36747    -1.35654    -1.16425
H      1.82041    -0.72787    -0.55768
O      1.00765    -0.53870    -2.28090
H      0.40697     0.13124    -1.90091
O     -1.54453    -1.79875     3.03531
H     -1.25903    -2.30028     2.25102
O     -0.52243    -2.13215     3.96985
H     -1.05338    -2.45432     4.70326
O     -3.33895     0.50733     0.42282
H     -2.72251     0.77759     1.12681
O     -2.42120     0.23822    -0.63633
H     -2.05904    -0.62935    -0.39185
