 36
-1364.9743576861867
O     -0.51160     1.67987     1.60545
H     -1.23801     1.03647     1.49431
O      0.04828     1.35175     2.86324
H      0.76400     0.75658     2.59344
O     -2.99771     0.72582     0.45356
H     -3.85648     0.96725     0.80886
O     -3.00475     1.36054    -0.82844
H     -2.71049     2.27375    -0.59045
O      2.53028    -0.29664     2.59094
H      2.84968    -0.54589     3.46209
O      2.49068    -1.55927     1.94211
H      2.93435    -1.34193     1.10190
O     -0.01700     1.63886    -1.57721
H     -0.35048     0.75181    -1.83432
O      0.92765     1.23995    -0.56989
H      0.44211     1.45690     0.25825
O     -0.02084    -2.43900     1.31885
H      0.88075    -2.16972     1.57709
O     -0.69671    -1.18391     1.23211
H     -0.85104    -1.09980     0.27730
O     -2.04266     3.59396     0.21236
H     -1.58039     3.31448     1.01579
O     -0.95529     4.00411    -0.62109
H     -0.65240     3.15592    -1.00003
O     -1.92638    -0.73786    -2.63662
H     -2.44601    -0.14780    -2.07574
O     -0.76319    -0.85551    -1.81743
H     -0.53510    -1.81446    -1.86958
O      1.41450    -3.51955    -1.30294
H      1.69906    -2.59111    -1.35020
O     -0.00375    -3.34504    -1.18388
H     -0.10369    -3.29470    -0.21280
O      2.19886    -0.93948    -1.32268
H      1.71307    -0.11649    -1.05733
O      3.36209    -0.83970    -0.50254
H      4.05977    -0.84858    -1.16316
