 20
-758.3018846967011
O      0.17404    -1.72809     0.42433
H     -0.69216    -1.31802     0.59023
O     -0.17025    -2.89684    -0.31458
H     -0.12548    -2.56673    -1.22309
O      0.73240     0.02281     3.21148
H      1.21997     0.67045     3.72640
O      1.45723     0.07663     1.98092
H      1.21266    -0.78529     1.60901
O      0.41999     1.15491    -0.50835
H      1.03178     1.01979     0.23478
O      1.21130     1.86459    -1.46793
H      1.29532     1.17549    -2.14343
O      0.34614    -0.35869    -3.32684
H     -0.16430     0.09335    -4.00727
O     -0.68742    -0.81807    -2.44985
H     -0.58816    -0.20291    -1.70509
O     -1.94859     1.62838     1.09254
H     -1.37015     1.86205     0.35476
O     -1.45456     0.32425     1.41845
H     -0.82399     0.50505     2.13433
