 32
-1213.3109781232404
O      2.82120    -1.55693     1.50859
H      2.96229    -1.37405     0.57116
O      1.71085    -0.70389     1.75488
H      0.95481    -1.31781     1.75906
O     -0.79457    -0.26734    -0.98275
H      0.16098    -0.47557    -0.86776
O     -1.34360    -1.56563    -1.25598
H     -1.60056    -1.81093    -0.34672
O      0.85294     2.06828     0.16619
H      0.15254     2.75097     0.12006
O      0.76436     1.73935     1.55374
H      1.28508     0.91043     1.60216
O      1.80271    -0.81783    -1.09666
H      1.83780    -1.15831    -2.00829
O      2.55513     0.40715    -1.19232
H      1.95286     1.00178    -0.71389
O     -2.37690     3.62304    -0.10852
H     -2.50201     2.71401     0.22381
O     -1.05273     3.88953     0.35628
H     -1.20163     4.46096     1.11621
O      0.30871    -1.57414    -3.48160
H     -0.35775    -1.75838    -2.80235
O      1.22525    -2.64662    -3.22855
H      1.61078    -2.75113    -4.10227
O     -1.69630    -1.78635     1.40266
H     -1.76616    -0.86269     1.74546
O     -0.45909    -2.23622     1.93594
H     -0.73570    -2.84538     2.62547
O     -2.42107     1.00727     0.65922
H     -1.83280     0.56637     0.00359
O     -1.72940     0.80050     1.88737
H     -0.86617     1.25145     1.75060
