 32
-1213.3106627774973
O     -0.13123    -1.50752     0.82151
H      0.67059    -1.31055     0.29647
O      0.23610    -1.06540     2.12227
H     -0.57013    -0.61091     2.40194
O      0.29847    -4.43793    -1.69710
H      0.19538    -5.16440    -2.31880
O      0.23975    -3.31031    -2.57074
H     -0.58031    -2.87193    -2.26953
O     -1.67526    -1.78992    -1.38376
H     -1.27624    -1.74155    -0.49413
O     -1.46869    -0.45203    -1.85883
H     -0.53225    -0.47886    -2.14248
O     -1.73957     1.00580     3.03758
H     -1.74100     1.23669     2.08324
O     -0.75062     1.89642     3.54521
H     -1.27631     2.55728     4.00541
O      1.65237     1.81884    -1.00159
H      1.42473     1.79892    -0.03605
O      0.72670     2.77470    -1.51434
H      1.24359     3.58415    -1.47784
O      1.21522    -0.52278    -2.18663
H      1.52868     0.35789    -1.90474
O      1.72244    -1.32842    -1.11013
H      1.66389    -2.20267    -1.52347
O      2.03385     0.91853     1.99386
H      1.49358     0.10676     2.04490
O      1.05492     1.85868     1.55182
H      0.47129     1.95299     2.33425
O     -1.60550     2.44898    -0.10685
H     -0.75064     2.54249    -0.56096
O     -1.50681     1.09469     0.35293
H     -1.61328     0.57047    -0.47610
