 32
-1213.3123878631377
O      2.23772    -1.08305     1.53962
H      2.71849    -1.40566     2.30857
O      2.65870    -1.97826     0.51721
H      3.05697    -1.36041    -0.12763
O      0.72571    -2.61700    -1.56507
H      1.14281    -2.56398    -0.69345
O      0.16693    -1.31557    -1.68969
H     -0.77201    -1.43357    -1.41765
O     -2.65707     0.29705    -0.93197
H     -1.84759     0.72318    -1.27718
O     -2.22483    -1.02572    -0.61342
H     -1.97149    -0.93338     0.32057
O      0.26251     2.20022     1.31505
H      0.66993     1.74943     0.54908
O     -0.85482     2.81240     0.66157
H     -1.60451     2.35960     1.09235
O     -0.46123     1.74218    -1.72710
H     -0.65320     2.47376    -1.11293
O      0.68830     1.20092    -1.06765
H      0.60143     0.25233    -1.29637
O      3.32630    -0.43059    -1.55741
H      3.75070     0.21958    -2.13101
O      3.41876    -1.63243    -2.32029
H      2.47917    -1.81699    -2.46351
O     -0.44212    -0.75560     1.65047
H      0.51669    -0.90782     1.57101
O     -0.52133     0.10025     2.78981
H     -0.18446     0.93195     2.39990
O     -2.85767     1.54081     1.88950
H     -2.45845     0.91824     2.51819
O     -3.98134     0.80271     1.38452
H     -3.69614     0.67072     0.46362
