 36
-1364.9773658736367
O      2.26100     1.41894     0.56938
H      2.55645     0.58258     0.14670
O      1.23418     0.89924     1.42032
H      0.53489     1.58088     1.37511
O     -0.16657     0.48248    -1.52157
H      0.18424     1.39527    -1.55044
O     -0.65996     0.31575    -2.85342
H     -1.08379    -0.54811    -2.76983
O     -2.57644    -0.25997    -0.21543
H     -1.92249     0.39949    -0.50524
O     -1.81022    -1.46094    -0.25189
H     -1.36942    -1.47461     0.61808
O      1.45086    -1.97498     1.71695
H      1.16586    -1.08182     1.95942
O      0.19401    -2.61315     1.48758
H      0.39003    -3.13103     0.67633
O     -1.32760    -0.39333     2.56363
H     -1.60458    -1.02177     3.24253
O     -2.48820     0.43582     2.40987
H     -2.75097     0.18671     1.50191
O     -0.86907     2.63185     1.44233
H     -1.57950     2.20486     1.94340
O     -1.48197     2.73684     0.15478
H     -1.03838     3.53211    -0.16682
O      1.83472    -1.31381    -1.49627
H      1.11502    -0.65699    -1.40327
O      2.70870    -1.00255    -0.41298
H      2.36250    -1.57239     0.30097
O      1.13629     2.85999    -1.36538
H      1.66033     2.55525    -0.59132
O      0.65006     4.12787    -0.92661
H      0.87922     4.67001    -1.68763
O     -0.54947    -3.37379    -1.72245
H     -1.03585    -2.77025    -1.13827
O      0.63537    -3.61086    -0.95671
H      1.24031    -2.93464    -1.32522
