 40
-1516.6429220241234
O      1.99734     2.63189     1.78735
H      1.76720     1.67501     1.77145
O      2.64129     2.82370     0.53607
H      3.56817     2.85479     0.78770
O      1.64519    -0.92584     1.10373
H      1.60110    -0.47373     0.22960
O      1.14162     0.11114     1.94507
H      0.16436    -0.02373     1.91452
O     -0.84938     3.12149    -1.63860
H     -0.68116     4.02286    -1.93373
O     -0.72816     2.35487    -2.83288
H      0.06863     1.82404    -2.62732
O     -3.07900    -0.28311    -0.85834
H     -3.07651     0.04019     0.06678
O     -1.78487     0.16967    -1.27412
H     -1.99515     0.76131    -2.01267
O     -0.59074     3.52136     1.49958
H      0.33081     3.44434     1.78631
O     -0.70666     2.24618     0.87388
H     -0.77583     2.49112    -0.07164
O      1.44388     0.87817    -0.73206
H      1.88410     1.72872    -0.53971
O      1.35139     0.75885    -2.14759
H      1.05834    -0.18137    -2.15988
O     -1.46814    -0.46069     2.07442
H     -1.73645    -1.28607     1.61676
O     -2.46637     0.47883     1.65844
H     -1.88323     1.24639     1.45810
O     -1.70121    -2.58873    -0.64487
H     -2.35858    -1.87498    -0.76984
O     -1.77702    -2.80412     0.76868
H     -0.93021    -3.25759     0.92812
O      0.82861    -3.45722     1.28715
H      1.17280    -2.53485     1.24657
O      1.77097    -4.15044     0.48054
H      2.22777    -4.69077     1.13107
O      1.26750    -2.78750    -2.27448
H      1.60053    -3.26502    -1.50535
O      0.64916    -1.68996    -1.61338
H     -0.22867    -2.04733    -1.34481
