 40
-1516.6422763756718
O      2.09607     3.55440    -0.36387
H      2.73225     2.80958    -0.30341
O      2.53749     4.22621    -1.53341
H      2.74747     5.08901    -1.16822
O      0.63326    -0.33274     0.77069
H      0.88200     0.11453    -0.07731
O      1.06295     0.58951     1.78515
H      0.19245     0.80904     2.18425
O      0.39969    -0.47453    -2.25906
H      0.70620    -1.30738    -1.84068
O      1.26085     0.49645    -1.66265
H      0.73854     1.32226    -1.76171
O     -2.53997     0.51044    -0.99539
H     -2.49830     0.23609    -0.06059
O     -2.23486    -0.69492    -1.68725
H     -1.31645    -0.53540    -1.97491
O     -0.37698     2.64274     0.15684
H      0.51157     3.04250     0.08845
O     -0.60340     2.31404    -1.22222
H     -1.41817     1.77238    -1.16879
O      3.59696     1.36421    -0.06226
H      3.96557     0.62368    -0.55731
O      3.78860     0.99450     1.30343
H      2.87157     0.80250     1.55866
O     -1.41698     0.93444     2.73595
H     -1.76860     0.03363     2.76988
O     -2.22595     1.50364     1.69806
H     -1.55383     2.02161     1.21649
O     -1.39199    -2.42457     2.16451
H     -1.60589    -3.22266     1.66440
O     -1.71133    -1.41486     1.21117
H     -0.81577    -1.09822     0.96627
O      1.03726    -3.29359     0.31908
H      1.11541    -2.47947     0.83263
O      0.58114    -2.77093    -0.92642
H     -0.32145    -3.14133    -0.97192
O     -1.99995    -3.47282    -1.07994
H     -2.42446    -2.59870    -1.09631
O     -2.76130    -4.15031    -0.08965
H     -3.08635    -4.90120    -0.59338
