 40
-1516.6422580377712
O      3.58744     1.40864    -0.36478
H      4.47316     1.73924    -0.19198
O      2.79667     2.59332    -0.29124
H      2.23947     2.37675     0.48700
O     -0.08727    -2.48213    -1.40499
H      0.64644    -3.04213    -1.08788
O     -0.94237    -2.52375    -0.26606
H     -1.55900    -1.77091    -0.42681
O     -3.20564     0.11246     0.49602
H     -3.72094     0.80934     0.05114
O     -2.41169    -0.33304    -0.60889
H     -1.84460     0.45519    -0.74438
O      1.34993     1.59208     1.74425
H      1.31793     0.61940     1.64602
O     -0.02985     1.95285     1.67748
H     -0.45672     1.27210     2.24423
O     -4.16824     2.25017    -0.82407
H     -4.99228     2.71229    -0.99550
O     -3.61877     2.13001    -2.13857
H     -2.70383     2.36240    -1.93178
O     -0.95320     1.87481    -0.83722
H     -0.63540     2.06957     0.07677
O     -0.01431     2.55704    -1.66355
H      0.54529     1.81454    -1.93544
O      2.61456    -0.52070    -1.95637
H      2.94934     0.25053    -1.45403
O      1.23070    -0.19307    -2.05577
H      0.77302    -1.03535    -1.85900
O      0.49046    -2.13470     1.99928
H     -0.05180    -2.33534     1.20619
O      1.34565    -1.11221     1.49915
H      2.06008    -1.62309     1.07198
O      2.99191    -2.51007    -0.24526
H      2.87689    -1.89106    -1.00299
O      2.19016    -3.61631    -0.63978
H      2.84381    -4.24641    -0.95557
O     -2.28307    -0.75994     2.94439
H     -2.58643    -0.45506     2.07578
O     -0.98803    -0.15825     3.00279
H     -0.40188    -0.93267     2.87355
