 36
-1364.974469587805
O     -1.27408     0.40874     1.13915
H     -1.77103    -0.11105     1.79329
O     -0.19702     0.93384     1.92471
H      0.44379     0.19165     1.94933
O     -1.35257    -2.48264     3.19583
H     -1.77961    -3.24772     3.59180
O     -2.40712    -1.88430     2.45518
H     -2.22340    -2.19442     1.54077
O     -1.95623    -2.27196    -0.13967
H     -2.43801    -1.55296    -0.60805
O     -0.62670    -2.01067    -0.59547
H     -0.09210    -2.17207     0.20964
O      3.00739     1.08432    -2.45716
H      2.04945     1.07279    -2.58654
O      3.22683     2.40603    -1.95170
H      3.24323     2.23956    -0.99641
O     -3.01699    -0.16837    -1.40330
H     -2.26690     0.44537    -1.58188
O     -3.43650    -0.50940    -2.72018
H     -4.32564    -0.14538    -2.72163
O      1.10612     3.66352     0.23405
H      1.09685     4.06647    -0.63945
O     -0.11620     2.93039     0.20118
H     -0.02746     2.31778     0.96698
O      2.92564    -0.39302    -0.20675
H      3.13903    -0.13403    -1.12596
O      2.33030     0.83099     0.21992
H      1.48255     0.77735    -0.27649
O     -0.75952     1.23840    -1.75410
H     -0.62950     1.93552    -1.07908
O      0.33123     0.36949    -1.42068
H     -0.10699    -0.46799    -1.14291
O      1.49127    -1.17458     1.97402
H      2.13817    -1.07315     1.24889
O      0.81257    -2.37904     1.61778
H      0.12719    -2.41385     2.31332
