 32
-1213.308607462647
O      1.62225     2.05505     0.41309
H      1.79236     1.73416    -0.48375
O      0.50284     1.25354     0.76576
H      0.84965     0.68359     1.47506
O     -0.71710    -2.00377     0.11619
H     -0.05940    -2.20010     0.81600
O      0.11906    -1.36916    -0.85227
H     -0.45159    -0.65164    -1.21584
O     -1.08399     1.86443    -1.26471
H     -0.52214     1.60867    -0.50087
O     -1.46043     0.57957    -1.78053
H     -2.37968     0.52117    -1.44282
O     -1.80204    -0.03233     2.42792
H     -2.00261     0.85160     2.07651
O     -2.61742    -0.86599     1.59924
H     -1.94868    -1.29943     1.03082
O      2.79456     0.50683    -2.95109
H      2.85571    -0.41570    -2.67096
O      1.54076     0.86517    -2.35921
H      0.98747     1.10959    -3.11441
O      2.58671    -0.97872     0.01682
H      1.73001    -1.06752    -0.45504
O      3.46929    -1.58115    -0.92679
H      4.26250    -1.06431    -0.76868
O      0.74597    -0.81776     2.74962
H     -0.22629    -0.76174     2.70547
O      1.00137    -2.08960     2.14503
H      1.84932    -1.91044     1.71451
O     -3.59964     0.84001    -0.22067
H     -3.49777     0.10566     0.41156
O     -3.11329     1.91372     0.60761
H     -2.60593     2.41581    -0.04431
