 32
-1213.3113806015742
O     -1.99775    -0.56373    -1.33854
H     -2.22353    -0.72648    -0.41058
O     -1.16189     0.58987    -1.22725
H     -0.25679     0.22343    -1.28527
O      3.00736    -1.21812    -3.39557
H      3.85095    -1.63637    -3.58505
O      2.95506    -1.35057    -1.97670
H      3.04258    -0.43164    -1.67643
O      0.77328    -1.49679     1.80674
H      0.73797    -1.50372     0.82799
O      1.68799    -0.43186     2.06774
H      1.06467     0.30573     2.22805
O     -0.29686     1.34092     2.12037
H     -1.09487     0.85296     1.85083
O      0.00167     2.12401     0.95816
H     -0.80495     2.67127     0.85016
O      2.91322     0.71912    -0.02066
H      2.64513     0.16627     0.73898
O      1.65889     0.86062    -0.68861
H      1.15676     1.39854    -0.04710
O     -0.30506    -2.67796    -1.40387
H     -1.01844    -2.09999    -1.71082
O      0.52428    -1.66576    -0.82399
H      1.35912    -1.76231    -1.32184
O     -2.09713    -1.60176     1.89086
H     -1.17354    -1.52246     2.18266
O     -2.39166    -0.23742     1.61784
H     -3.26705    -0.12116     2.00180
O     -3.02816     2.11450    -0.08875
H     -2.31990     1.65213    -0.58794
O     -2.34101     3.26026     0.41582
H     -2.58014     3.94890    -0.20997
