 20
-758.3034268075769
O     -1.29460    -2.06479     0.38141
H     -1.57629    -1.84704    -0.51883
O     -0.63892    -0.85319     0.74056
H      0.30885    -1.09606     0.71255
O      2.04354    -1.03983     0.76188
H      2.72513    -1.38387     1.34810
O      2.36426     0.34920     0.67784
H      1.71112     0.72746     1.30220
O     -1.04058    -0.68915    -3.11793
H     -0.50117     0.04703    -2.79178
O     -2.14846    -0.60648    -2.21054
H     -2.88776    -0.48559    -2.81689
O     -0.11741     1.68814    -0.73114
H     -0.58185     0.90315    -0.39483
O      0.83316     1.08685    -1.62203
H      1.56786     0.89007    -1.01816
O     -0.37777     0.76361     3.16494
H     -0.78076     0.12558     2.55557
O      0.50988     1.43916     2.27500
H      0.09116     2.30170     2.16374
