 32
-1213.3137692325754
O      1.98095    -0.74854     0.63298
H      1.96944    -0.85632    -0.34493
O      2.29212     0.63677     0.78691
H      1.42740     0.99439     1.07975
O     -0.83713    -1.79142     0.05544
H     -1.69401    -1.31389    -0.01333
O     -1.22885    -3.03460     0.61979
H     -0.74786    -2.98491     1.45327
O     -0.60365     1.55649    -1.33181
H     -0.35323     0.66603    -1.67220
O     -1.77417     1.85010    -2.08549
H     -2.44913     1.55767    -1.45264
O     -0.14253     1.64170     1.26790
H     -0.37162     1.70921     0.31223
O     -1.14296     0.74014     1.75030
H     -0.59649     0.08019     2.22360
O      2.77498     2.24269    -1.36455
H      2.65880     1.56538    -0.67305
O      2.06407     1.69071    -2.47207
H      1.21407     2.14830    -2.42295
O      1.71168    -0.88752    -2.03517
H      1.96162     0.00020    -2.37213
O      0.28544    -0.81053    -2.16355
H     -0.00940    -1.42283    -1.46015
O      0.25857    -2.22046     3.27360
H      0.58873    -2.27922     4.17444
O      0.64456    -0.89488     2.92149
H      1.27315    -1.04982     2.18151
O     -3.19190    -0.59385    -0.21009
H     -4.01768    -0.86671     0.20259
O     -3.15481     0.80645     0.03763
H     -2.47011     0.83379     0.74126
