 28
-1061.641978710341
O     -3.43282     0.71264    -1.97314
H     -4.31048     0.92781    -2.29832
O     -3.69537     0.36952    -0.61182
H     -3.03489    -0.32729    -0.49413
O      2.42760     0.68208     0.08623
H      1.61670     1.09675     0.47454
O      2.20353     0.86827    -1.30889
H      2.76996     1.62495    -1.49158
O      0.25194    -2.17285     2.46960
H     -0.35599    -1.98757     1.73932
O      1.18981    -1.10271     2.32862
H      1.66600    -3.20373     0.10949
O     -0.53378    -0.72497    -0.93806
H      0.30216    -1.12928    -0.65606
O     -1.39563    -1.04467     0.16357
H     -1.24905    -0.26717     0.74586
O     -0.41288     2.23550    -2.17998
H      0.22669     1.54809    -1.94870
O     -1.34923     2.12050    -1.11190
H     -2.09727     1.61811    -1.50412
O      3.09291    -2.04761     0.52173
H      3.24310    -1.14330     0.21409
O      1.82805    -2.28052    -0.10816
H      1.96552    -1.55325     1.95279
O     -0.54266     0.84191     1.82395
H      0.18307     0.26943     2.15103
O      0.17988     1.74876     0.98923
H     -0.46476     1.90698     0.25079
