 28
-1061.6372719334956
O      0.59404    -2.17706    -1.72741
H      1.31270    -1.90793    -1.11861
O      0.77132    -1.27246    -2.81537
H      1.02549    -1.88385    -3.51192
O      1.65257    -2.39904     0.98482
H      0.70938    -2.18425     1.13173
O      2.04175    -1.21661     0.27384
H      2.45858    -0.67534     0.97800
O      0.41279     1.94769     0.41870
H     -0.51952     1.91713     0.70416
O      0.38998     1.14496    -0.76530
H     -0.85222    -2.27469    -0.64208
O     -2.49030     2.35527    -1.91645
H     -2.62476     2.27072    -2.86455
O     -2.17614     1.01165    -1.56737
H     -1.20547     1.05267    -1.41757
O     -2.68036     0.52316     1.04768
H     -2.81786     0.61400     0.08567
O     -2.13479     1.81194     1.32643
H     -2.53359     2.00239     2.17960
O     -0.84340    -1.47458     1.03950
H     -1.48681    -0.75128     1.15700
O     -1.51976    -2.27452     0.06288
H      0.77365     0.31326    -0.44016
O      3.00026     1.42619     1.05460
H      2.07216     1.69840     0.94639
O      2.85562     0.51539     2.14863
H      3.67789     0.65703     2.62636
