 36
-1364.9674535584463
O      2.60130     0.34015     0.18963
H      2.32838     1.14394     0.67473
O      2.99897     0.85067    -1.07810
H      2.14387     0.95447    -1.52483
O     -2.90549    -1.93405     1.46462
H     -3.81622    -2.04141     1.75201
O     -3.04817    -0.84921     0.54686
H     -2.28210    -1.01597    -0.04290
O      2.81756    -1.57481    -2.77020
H      3.23895    -1.00025    -2.11503
O      2.00490    -2.36619    -1.90260
H      2.33419    -3.26066    -2.04552
O     -0.86603    -1.06145    -0.92697
H     -0.54538    -0.15464    -1.14603
O     -0.64970    -1.78863    -2.13929
H      0.29822    -1.98937    -2.04372
O      0.11310     1.42196    -1.28690
H      0.25493     2.04125    -0.54996
O     -0.52314     2.20317    -2.29173
H     -1.41241     2.27033    -1.90817
O     -2.51690     1.95724    -0.11072
H     -2.80600     1.21593     0.44926
O     -2.70233     3.09837     0.72773
H     -1.79485     3.25891     1.01801
O     -1.25532    -0.11170     2.75760
H     -1.83171    -0.79973     2.39234
O     -0.42799     0.11710     1.61618
H      0.18609    -0.66079     1.62542
O      1.73203     2.48776     1.53427
H      1.91310     2.75628     2.43937
O      0.31829     2.59787     1.44940
H      0.03037     1.66057     1.61949
O      0.72864    -3.06527     0.68682
H     -0.03986    -2.71119     0.21513
O      1.25352    -1.88940     1.29683
H      1.87842    -1.55260     0.63500
