 24
-909.9733912938437
O     -2.19656    -1.91246     0.29052
H     -2.77656    -2.67271     0.19486
O     -1.80069    -1.67845    -1.05961
H     -2.06340    -0.74205    -1.15286
O      0.79138    -0.62891    -1.05830
H      0.26866    -1.43937    -0.93976
O      0.74177    -0.40765    -2.46547
H      0.05929     0.27611    -2.50537
O      0.83346    -1.68047     1.77282
H      1.50433    -0.97923     1.69132
O     -0.34757    -0.90338     1.98835
H     -0.99649    -1.38334     1.44517
O      0.61459     2.41356     1.58699
H      1.43047     2.28183     1.08947
O     -0.24109     1.51149     0.88990
H     -0.21803     0.70371     1.45043
O      2.62395     0.86134     0.22283
H      1.96443     0.31664    -0.25464
O      2.88900     0.02267     1.34561
H      3.75137    -0.34498     1.12843
O     -1.59482     1.59132    -2.20758
H     -2.23614     2.29435    -2.33834
O     -2.05998     1.00766    -0.98983
H     -1.35357     1.26578    -0.35069
