 24
-909.9763986728093
O     -3.11216    -0.59475     0.76177
H     -2.32952    -0.18310     1.18232
O     -2.55532    -1.03367    -0.48307
H     -2.63621    -0.22403    -1.02184
O      0.00189    -1.59046    -0.25961
H     -0.98157    -1.46503    -0.25869
O      0.35089    -0.89633    -1.46577
H      1.31290    -0.75734    -1.34145
O      2.93673    -0.24058    -1.14738
H      3.73713    -0.21325    -1.68262
O      2.94385     1.04648    -0.52035
H      2.94376     0.77537     0.40962
O     -2.16763     1.20096    -1.90339
H     -2.03985     1.30313    -2.85097
O     -0.86045     1.46393    -1.39072
H     -0.44768     0.56783    -1.41389
O      1.75268    -0.00590     1.99610
H      2.02187    -0.08204     2.91704
O      2.03950    -1.31739     1.50136
H      1.26892    -1.44823     0.91278
O     -0.88702     0.52627     1.74390
H      0.07796     0.38645     1.74589
O     -0.99520     1.90244     1.36234
H     -1.06227     1.82662     0.39697
