 36
-1364.978535530357
O      3.12250     0.40447    -0.62043
H      3.95958     0.82841    -0.83253
O      3.04076     0.61665     0.78774
H      3.26707    -0.27826     1.12308
O     -2.28555     1.48325    -0.10501
H     -1.31149     1.49060    -0.05435
O     -2.52688     0.85196    -1.36457
H     -2.21485    -0.06425    -1.18753
O     -0.23900    -1.61758    -1.52840
H      0.00870    -0.67246    -1.60955
O     -1.47695    -1.55285    -0.81308
H     -1.19828    -1.90467     0.05534
O      0.19777     2.09837    -1.40373
H     -0.25981     2.41746    -2.20302
O      0.72766     0.85678    -1.85662
H      1.59751     0.85098    -1.41460
O      0.30746     0.96297     1.27183
H      1.27125     1.01804     1.17493
O      0.17433    -0.12546     2.18610
H     -0.77500    -0.04662     2.40665
O     -2.46378    -0.07806     2.73448
H     -3.16671     0.15382     3.34869
O     -3.18165    -0.39956     1.54071
H     -2.94197     0.36178     0.96282
O     -1.24366     3.24350    -3.35747
H     -1.50382     4.16522    -3.26942
O     -2.50389     2.58742    -3.48723
H     -2.50977     2.04119    -2.67901
O      3.31227    -2.31101     2.73968
H      4.02758    -2.94085     2.86348
O      3.46290    -1.99366     1.36044
H      2.66915    -2.42495     0.96749
O      0.07653    -2.55667     1.09464
H      0.33538    -1.69992     1.49097
O      1.18756    -2.88276     0.25384
H      0.84674    -2.53529    -0.59774
