 16
-606.642101677498
O     -2.30847    -0.40960     1.51144
H     -3.08209    -0.03273     1.94222
O     -1.46415     0.73687     1.41354
H     -1.44317     0.88678     0.44144
O      1.63708     0.67566     1.08556
H      1.81673     1.14570     1.90684
O      0.95915    -0.50256     1.53650
H      0.03843    -0.17353     1.59550
O      1.49582    -1.26373    -2.15147
H      1.38608    -0.30413    -2.22513
O      0.46577    -1.56959    -1.20333
H      0.92398    -1.47493    -0.35382
O     -0.88713     0.70738    -1.20937
H     -0.62945    -0.23403    -1.30720
O      0.41445     1.30710    -1.24236
H      0.76967     1.07601    -0.36507
