 32
-1213.3129360156966
O      0.07101    -0.71339     1.78426
H      0.80628    -1.30927     1.55431
O      0.75132     0.54792     1.84035
H      0.03009     1.11943     2.17221
O      2.03518    -2.45712    -0.61090
H      2.66786    -3.17870    -0.69586
O      2.28518    -1.99479     0.71117
H      2.77053    -1.16028     0.52504
O      0.38501    -0.15802    -1.92685
H     -0.08946    -1.00558    -1.78015
O     -0.14073     0.28586    -3.17685
H     -0.80388     0.91336    -2.84879
O     -1.60143     1.78301    -1.36131
H     -1.89269     0.99675    -0.84568
O     -0.47086     2.18197    -0.56802
H      0.16682     1.48990    -0.81417
O      3.09044     0.81291    -1.12333
H      2.44443     0.18322    -1.48059
O      3.12562     0.46743     0.25238
H      2.38749     0.96011     0.64148
O     -3.09960    -0.00686     1.14687
H     -2.91655     0.91474     1.39357
O     -2.03503    -0.22458     0.23781
H     -1.29660    -0.49570     0.83439
O     -1.12394    -2.31574    -1.34507
H     -1.94013    -1.97593    -0.95348
O     -0.57009    -3.01328    -0.21768
H      0.37534    -2.85158    -0.36808
O     -1.09542     2.26525     2.66494
H     -1.02285     3.14650     3.04212
O     -1.97676     2.46449     1.56733
H     -1.34765     2.45357     0.80872
