 36
-1364.9740341820989
O      4.69876    -0.41894    -0.44853
H      5.59735    -0.15924    -0.67331
O      4.10490     0.82496    -0.09534
H      3.42782     0.91954    -0.78367
O     -2.55104     0.10286     2.88531
H     -2.17556     0.91335     2.51138
O     -2.75184    -0.67561     1.70729
H     -1.86537    -1.07846     1.55290
O      2.51373    -2.81934    -1.55601
H      1.67695    -2.52625    -1.16681
O      2.99168    -1.62111    -2.15120
H      3.65711    -1.31999    -1.50666
O      0.96401     0.05787    -2.40206
H      1.65829    -0.63828    -2.48285
O      1.42343     0.72898    -1.22536
H      1.18291     0.10863    -0.50802
O     -2.24569     0.84849    -1.06358
H     -3.21811     0.71424    -0.97078
O     -1.83753    -0.37271    -1.68586
H     -1.12595    -0.04344    -2.25627
O     -4.79967     0.41911    -0.51058
H     -5.69214     0.72154    -0.69915
O     -4.56232     0.99846     0.77516
H     -4.03206     0.27739     1.17627
O     -0.81094     1.68243     1.00002
H     -1.41836     1.36660     0.29446
O     -0.12921     2.74437     0.32512
H      0.23751     2.27844    -0.44065
O      1.94067    -0.17530     1.52926
H      2.80781     0.23286     1.36875
O      1.42789     0.55401     2.64514
H      0.73147     1.07219     2.21373
O     -0.01114    -1.65615    -0.22079
H     -0.81711    -1.27250    -0.61538
O     -0.28589    -1.57673     1.18369
H      0.52182    -1.13259     1.51225
