 28
-1061.6480720382754
O     -0.13297    -1.22332    -2.36527
H     -0.70325    -1.72692    -1.76255
O      0.97518    -2.09592    -2.57457
H      1.70011    -1.60282    -2.16364
O      1.37543    -1.62218     1.26081
H      0.51037    -1.38267     0.87748
O      1.65534    -0.48838     2.08926
H      2.18850     0.04913     1.46398
O     -0.76190     0.54166     2.73434
H      0.15737     0.21673     2.67413
O     -0.67301     1.74019     1.95641
H      0.38412     0.32812    -1.95850
O     -1.05385    -0.91939     0.40531
H     -1.46545    -0.66623     1.25189
O     -2.09085    -1.56756    -0.32201
H     -2.58251    -0.79445    -0.64080
O     -3.03694     1.73992     0.62471
H     -3.59138     2.49344     0.39601
O     -2.73139     1.19592    -0.65351
H     -1.79286     1.45727    -0.75290
O     -0.15394     1.78745    -0.85080
H      0.14821     1.60897     0.05393
O      0.83670     1.14400    -1.64235
H     -1.58678     1.81106     1.63114
O      2.83585     0.36529    -0.08659
H      2.18722     0.75324    -0.70848
O      3.02262    -0.92314    -0.68324
H      2.60177    -1.47689     0.00265
