 20
-758.3002915042981
O     -0.71026    -0.58388    -0.61799
H     -1.55788    -0.15223    -0.81349
O      0.01353    -0.37177    -1.84266
H      0.81869     0.09371    -1.52744
O      3.12425    -0.02723    -0.39962
H      2.53681    -0.73376    -0.08156
O      2.19384     0.92210    -0.93045
H      1.86469     1.35849    -0.13068
O      0.37063     0.90906     1.30161
H     -0.07019     0.29318     0.67867
O     -0.64001     1.90320     1.48354
H     -0.94914     1.69869     2.37189
O      1.12028    -2.85612    -0.24723
H      0.26447    -2.43247    -0.38372
O      1.63117    -1.99666     0.77981
H      2.10803    -2.62350     1.33423
O     -2.72578     1.37531    -0.38611
H     -2.12512     1.82358     0.22673
O     -3.65509     0.79605     0.53444
H     -4.48193     1.17166     0.21719
