 20
-758.3095169015729
O     -0.88101    -2.68896     0.19323
H     -1.62162    -3.30100     0.14483
O     -0.87795    -2.11546    -1.11524
H     -1.25506    -1.22998    -0.93860
O      1.60495     0.34849    -1.51063
H      1.68537     0.91436    -0.73090
O      1.74624    -0.95107    -0.93027
H      0.98217    -1.41446    -1.30373
O     -0.50196     2.69933     0.80970
H     -0.46029     3.54111     0.34830
O      0.83264     2.22284     0.64001
H      0.80622     1.45477     1.24303
O      0.97315    -0.17213     1.75022
H      1.17049    -0.81333     1.04934
O     -0.13078    -0.71996     2.46238
H     -0.62469    -1.17478     1.76656
O     -1.06931     0.78803    -1.71714
H     -0.10696     0.65484    -1.78346
O     -1.28374     0.41779    -0.35155
H     -1.13225     1.27104     0.10591
