 36
-1364.9727137062512
O      1.02934     2.96268     0.51478
H      0.70464     2.40813     1.24229
O     -0.18897     3.41652    -0.08223
H     -0.30373     2.79737    -0.82220
O     -1.43604    -1.50141     0.31658
H     -1.10265    -2.36820     0.60073
O     -1.74727    -1.71811    -1.05844
H     -2.04236    -0.81523    -1.27741
O      0.33821    -0.68439     3.56066
H      0.72293    -0.58830     2.66668
O     -1.04432    -0.71323     3.19110
H     -1.41717    -1.28380     3.86967
O      0.84715    -0.28729     1.01814
H      0.02151    -0.62551     0.59624
O      1.89149    -0.93924     0.28764
H      2.28882    -0.12986    -0.13412
O     -1.99295     2.12508     1.59119
H     -1.67875     2.95191     1.19640
O     -0.84289     1.83657     2.40931
H     -1.04855     0.94689     2.76272
O     -2.17612     0.90552    -1.21263
H     -2.09858     1.22352    -0.29909
O     -1.07411     1.54321    -1.85988
H     -0.71827     0.81066    -2.39852
O      2.59014     1.29107    -0.91593
H      2.12312     2.03623    -0.48658
O      1.96585     1.26247    -2.20106
H      1.57211     0.37944    -2.20306
O      0.63028    -1.48020    -2.46700
H     -0.09860    -1.94815    -2.02900
O     -0.11528    -0.54707    -3.24999
H      0.25403    -0.67080    -4.12975
O      0.67484    -3.29571     0.69090
H      1.28070    -2.54780     0.51046
O      0.73846    -4.01024    -0.54165
H      1.06628    -4.86372    -0.24190
