 16
-606.6382246630972
O     -2.20183    -0.25631     1.19921
H     -3.13185    -0.09270     1.38595
O     -1.71540     1.06660     0.95144
H     -0.82783     0.97836     1.32642
O      1.87335    -0.32001     0.88243
H      1.67744     0.38077     0.23585
O      0.87355    -0.04129     1.87671
H      0.44582    -0.90056     1.94649
O      0.71781     1.24600    -1.06833
H      0.09871     0.52329    -1.30296
O      1.67967     1.14192    -2.11703
H      1.61007     2.01524    -2.51277
O     -0.85402    -0.93398    -1.02536
H     -1.42724    -0.79444    -0.24838
O     -0.05184    -2.04763    -0.60910
H      0.78663    -1.61022    -0.40206
