 32
-1213.3109606305736
O      0.16339    -1.23797     3.59088
H      0.26354    -1.13269     4.53957
O      0.92668    -0.13716     3.11846
H      1.54973    -0.59034     2.51110
O      0.14662    -1.44824    -0.54117
H     -0.59936    -1.17165     0.03833
O     -0.38870    -2.60914    -1.17227
H     -0.37485    -2.28657    -2.08266
O     -0.08137    -0.83654    -3.29134
H      0.54573    -0.24874    -2.82111
O     -1.24891    -0.02608    -3.29506
H     -1.41535     0.10806    -4.23279
O      2.23463    -0.99574     0.97456
H      1.52865    -1.24301     0.33380
O      2.84159     0.13916     0.35310
H      2.48391     0.87533     0.88381
O      1.58291     0.77345    -1.95048
H      2.08944     0.50882    -1.15257
O      0.99157     2.01126    -1.56439
H      0.04299     1.82015    -1.63760
O     -1.92464     1.79865    -0.91855
H     -1.54301     1.65789    -0.03969
O     -2.68126     0.60832    -1.10105
H     -2.22675     0.21997    -1.86551
O      1.32614     2.23373     1.07712
H      1.22937     2.38964     0.11777
O      0.01931     1.72853     1.36996
H      0.21569     1.06619     2.05553
O     -2.18757    -1.52046     2.17478
H     -1.43100    -1.34540     2.74664
O     -1.81856    -0.67514     1.08290
H     -2.66769    -0.45996     0.66960
