 32
-1213.3024239519302
O      1.90056     1.55138    -0.69237
H      2.72609     1.08978    -0.88817
O      1.74252     2.43525    -1.80931
H      0.89409     2.09310    -2.14048
O     -2.89210    -0.58110    -0.14863
H     -3.47281    -1.32142     0.05028
O     -2.28781    -0.32131     1.12037
H     -1.51027    -0.92116     1.14508
O     -1.14392    -2.74444    -1.45258
H     -0.98971    -1.79034    -1.59173
O      0.18153    -3.14457    -1.08401
H      0.19058    -4.06944    -1.35361
O      2.33656    -1.33248    -1.17854
H      1.89396    -2.06058    -1.63297
O      2.91955    -2.01099    -0.05889
H      2.28710    -1.78620     0.65434
O      0.52101     1.98884     2.69605
H     -0.32233     2.45651     2.63824
O      0.37637     1.13046     1.56915
H      0.93800     1.54469     0.88504
O     -0.30116    -0.22413    -1.69626
H      0.60660    -0.16128    -1.34561
O     -0.64088     1.12203    -1.99902
H     -1.00645     1.43380    -1.15419
O     -0.22248    -2.04110     1.30994
H      0.05440    -2.48213     0.48597
O      0.99218    -1.42071     1.76030
H      0.72770    -0.46989     1.78042
O     -1.49771     2.88816     0.25704
H     -2.09424     3.54287    -0.11814
O     -2.08672     2.63098     1.52793
H     -2.26100     1.68200     1.44456
