 40
-1516.6462173706038
O      0.07472     2.34208    -0.75108
H      0.09756     2.37957     0.21874
O      1.39856     2.73013    -1.15604
H      1.93748     2.57309    -0.34973
O     -0.86879    -0.65380     1.34242
H     -0.60863    -1.36524     0.70752
O     -2.18452    -0.30691     0.89217
H     -2.67273    -1.13134     1.11276
O      2.54681     2.11202     1.22630
H      1.74868     2.01407     1.79517
O      2.94767     0.74605     1.09061
H      2.35638     0.41392     0.38192
O     -3.19917    -2.70153     1.30769
H     -3.93057    -3.09829     1.78824
O     -3.71585    -2.65421    -0.02131
H     -2.89598    -2.82178    -0.52229
O      0.18410     1.55256     3.66826
H      0.98604     1.01452     3.82082
O      0.20904     1.60730     2.24812
H     -0.20888     0.75353     1.99572
O      1.21548    -0.18496    -0.73358
H      0.36452     0.25352    -0.92400
O      1.47922    -0.90666    -1.93475
H      1.55266    -0.17902    -2.58160
O     -1.23032    -0.22329    -2.33936
H     -0.84648     0.43732    -2.94614
O     -2.28160     0.51035    -1.69999
H     -2.22948     0.18875    -0.77910
O     -0.33235    -2.48237    -0.59384
H      0.37787    -2.17252    -1.18379
O     -1.42913    -2.70614    -1.49735
H     -1.48097    -1.83145    -1.93368
O      1.61538    -1.43385     3.10106
H      0.67328    -1.22533     3.13228
O      2.20466    -0.18741     3.46863
H      2.62196     0.08176     2.62200
O      0.09516     1.43951    -3.99495
H      0.16269     1.66726    -4.92861
O      1.46175     1.31130    -3.60545
H      1.50692     1.99164    -2.90898
