 40
-1516.638709378366
O      0.27572     0.93516     1.14893
H      1.21270     0.68093     1.22006
O      0.15131     1.95392     2.13886
H     -0.41410     1.48325     2.77322
O      2.35080     0.82103    -2.82876
H      2.14104    -0.07058    -2.50066
O      2.66151     1.49847    -1.60942
H      1.81241     1.94958    -1.44452
O     -2.79888     0.39009     2.66815
H     -2.67738     1.06994     1.96744
O     -1.85721     0.81717     3.65366
H     -2.40308     1.35334     4.23689
O      3.40975    -0.90410     1.31160
H      4.15943    -0.70720     1.88290
O      2.93430     0.40276     1.01805
H      3.12476     0.49652     0.06848
O     -2.08355     1.52267    -0.49685
H     -1.95391     0.58288    -0.24653
O     -2.18870     2.18979     0.76053
H     -1.26213     2.40216     0.96357
O     -2.01794    -1.95709     0.98511
H     -2.05013    -1.36349     1.75605
O     -1.56192    -1.07372    -0.03232
H     -0.58165    -1.19530    -0.03435
O     -0.19191     1.69649    -3.11667
H      0.70981     1.42223    -3.35980
O      0.11176     2.28654    -1.83639
H     -0.72217     2.11453    -1.34968
O      1.37576    -1.52847    -1.89121
H      0.47749    -1.50954    -2.27772
O      1.04751    -1.43036    -0.50353
H      1.41099    -2.25501    -0.14078
O      0.67407    -3.08506     1.65026
H     -0.27202    -3.07992     1.45509
O      0.76888    -1.91211     2.47480
H      1.65349    -1.59475     2.24662
O     -1.00890    -1.08773    -3.01785
H     -1.12356    -0.12335    -3.06371
O     -2.34040    -1.58671    -2.93389
H     -2.41201    -1.74907    -1.98404
