 24
-909.9747751622339
O      1.89273    -0.57075    -0.80802
H      1.91953     0.10157    -0.10359
O      2.03725    -1.76990    -0.04759
H      2.72397    -2.22952    -0.54089
O     -0.82456     0.30096    -2.60322
H     -1.70531     0.50815    -2.26204
O     -0.55268    -0.90413    -1.87122
H      0.36417    -0.73418    -1.59309
O     -0.40653    -2.15936     2.17762
H     -1.34247    -2.04317     2.36813
O     -0.45762    -2.46957     0.78313
H      0.45417    -2.26800     0.52394
O     -1.55892     0.13088     0.60893
H     -1.42869    -0.66051     0.05231
O     -2.22950     1.03576    -0.28511
H     -1.58227     1.76649    -0.33383
O      0.88535     0.56685     2.72572
H      0.55871    -0.34377     2.66958
O      0.82346     0.97905     1.36563
H     -0.07229     0.66427     1.11147
O     -0.22298     2.81351    -0.54182
H      0.24898     2.71433     0.29778
O      0.72112     2.19915    -1.42972
H      0.15167     1.56690    -1.90724
