 40
-1516.6385090946808
O      2.72525    -0.09916    -2.16743
H      2.36953     0.79563    -2.10724
O      1.56717    -0.81116    -2.61673
H      1.42601    -1.45386    -1.88692
O     -0.97630    -0.33656     1.17977
H     -0.23650    -0.16025     0.55541
O     -1.87041    -1.15131     0.44354
H     -2.31203    -0.50437    -0.14606
O      0.87190     2.72755     1.74121
H     -0.07715     2.57014     1.86699
O      1.41672     2.06444     2.88482
H      2.03258     1.44080     2.46508
O     -1.25939    -1.52314    -3.32803
H     -0.75244    -1.65010    -4.13856
O     -1.25915    -0.11239    -3.18094
H     -0.40876     0.05616    -2.72688
O     -1.78710     2.02471     1.94176
H     -1.65296     1.06519     1.76753
O     -3.17338     2.18390     1.66520
H     -3.37638     2.93492     2.22840
O      1.11539     2.26024    -0.92207
H      1.19511     2.36897     0.04628
O      0.11345     1.23854    -1.00549
H     -0.73474     1.72639    -0.96551
O     -2.43291     1.97085    -0.91432
H     -2.83405     2.11438    -0.03573
O     -2.98088     0.69473    -1.27197
H     -2.46984     0.49275    -2.07921
O     -0.09667    -3.32062    -1.11957
H     -0.59206    -2.66995    -1.63673
O      0.99913    -2.52284    -0.68071
H      1.00611    -2.67497     0.28715
O      0.91888    -1.88695     2.82619
H      0.16251    -1.44835     2.40159
O      1.10212    -3.02074     1.98214
H      0.73576    -3.74765     2.49759
O      2.81248    -0.01288     1.75967
H      2.49036    -0.72428     2.33320
O      1.95630    -0.23363     0.62889
H      2.57242    -0.25442    -0.12038
