 20
-758.3121122841362
O     -0.44602    -1.71992     0.94748
H      0.45187    -2.08316     0.92768
O     -0.41910    -1.00277     2.19077
H     -0.54338    -0.08550     1.88600
O      2.70860    -0.59441     0.81270
H      3.66484    -0.68371     0.75348
O      2.26738    -1.71004     0.03249
H      1.85484    -1.23940    -0.72006
O      0.71007     1.59881     0.44032
H      1.28142     0.99057     0.93273
O     -0.50299     1.50085     1.18628
H     -1.18184     1.53843     0.48339
O     -2.56031     1.44257    -0.50876
H     -3.34772     1.98017    -0.63396
O     -1.94628     1.52110    -1.80217
H     -1.51720     0.64144    -1.82435
O     -0.52806    -0.73909    -1.51508
H     -0.54785    -1.09932    -0.60327
O      0.76967    -0.14313    -1.57882
H      0.67071     0.62058    -0.97742
