 36
-1364.973063780083
O      1.28268    -0.89885    -1.83469
H      0.33498    -0.66777    -1.95451
O      1.96261     0.23389    -2.39838
H      2.77268     0.18016    -1.85046
O     -0.78234     2.02759     1.87512
H     -0.02844     1.45322     2.11395
O     -1.33885     1.21462     0.85117
H     -0.93697     1.52086     0.01278
O     -2.34235    -1.69590     0.43944
H     -3.24152    -1.51556     0.75847
O     -1.53676    -1.32030     1.56767
H     -1.37073    -0.37546     1.35343
O      0.59901     2.48485    -1.76411
H      1.07168     1.67882    -2.05160
O      0.92430     2.49893    -0.37183
H      0.71645     3.40439    -0.12506
O     -1.84213     0.77993    -1.78122
H     -2.77263     0.66991    -1.53241
O     -1.38975    -0.57811    -1.84136
H     -1.72147    -0.96536    -1.00537
O     -4.33705     0.56299    -0.68010
H     -5.04299     1.21293    -0.75950
O     -4.17542     0.43756     0.72525
H     -3.35976     0.94322     0.86188
O      2.30748     0.89438     1.34579
H      1.83291     1.47742     0.72727
O      1.19714     0.22260     1.95365
H      1.47600    -0.73271     1.93252
O      3.66428    -0.47159    -0.48361
H      3.23966    -0.10720     0.31733
O      3.30144    -1.85189    -0.41374
H      2.50594    -1.83190    -0.97637
O      0.76460    -2.67620     0.83974
H     -0.02989    -2.33661     1.28287
O      1.80206    -2.34999     1.77701
H      2.56520    -2.39656     1.17220
