 24
-909.9748586933928
O     -2.83405    -0.53267     0.53833
H     -2.33340    -0.00563    -0.10572
O     -1.97595    -1.66083     0.71135
H     -1.44296    -1.36872     1.47524
O      0.47202    -2.18433    -0.47646
H     -0.49547    -2.24697    -0.37476
O      0.63342    -1.95270    -1.88051
H      1.50688    -1.53800    -1.87041
O      2.73551    -0.15814    -1.11215
H      2.78088    -0.41491    -0.18293
O      2.11015     1.12419    -0.98846
H      1.27982     0.98429    -1.48149
O     -1.30464     1.02946    -1.14088
H     -0.81977     1.61632    -0.53031
O     -0.28914     0.71976    -2.09979
H     -0.37826    -0.24327    -2.18532
O     -0.11782    -0.44932     2.23943
H     -0.41784     0.47460     2.24083
O      0.99252    -0.32924     1.33838
H      0.75538    -0.99983     0.66967
O      0.17149     2.36540     0.68846
H      0.92945     1.75489     0.75533
O     -0.47344     2.18963     1.94296
H     -0.19641     2.97347     2.42873
