 36
-1364.9710925108818
O      2.46575     1.96243     1.54711
H      2.48917     1.07114     1.13411
O      2.18725     1.60227     2.90484
H      2.98980     1.89519     3.34860
O     -2.03329    -1.04608    -1.01023
H     -1.34797    -1.49865    -1.54071
O     -1.38356    -1.03535     0.26893
H     -2.08232    -1.34024     0.86042
O     -1.51711     0.60391     2.82712
H     -1.99214     1.11496     2.15286
O     -0.23040     0.49968     2.23221
H      0.31088     1.11523     2.75320
O      1.59976    -1.28535     1.28217
H      0.87954    -0.71622     1.61555
O      2.19695    -0.42354     0.29895
H      1.81336    -0.75341    -0.55007
O     -3.08449     1.29978     0.25557
H     -3.05471     0.73738    -0.53437
O     -3.22815     2.61154    -0.30107
H     -2.34803     2.97203    -0.13334
O     -0.18648     2.81750     0.66368
H      0.75933     2.66202     0.80900
O     -0.47579     1.84158    -0.33576
H     -0.84130     1.10704     0.19080
O      0.18252    -2.20315    -2.03094
H      0.58679    -2.79920    -1.37128
O      1.15518    -1.15086    -2.07120
H      0.61394    -0.43164    -2.45054
O     -0.38559     0.88298    -2.86624
H     -0.55192     1.35122    -2.02023
O     -1.68055     0.83769    -3.45088
H     -1.51525     1.30902    -4.26990
O      1.36931    -3.62645    -0.03544
H      1.56157    -2.88913     0.58322
O      2.66752    -4.16869    -0.25336
H      2.53300    -5.07205     0.04421
