 40
-1516.6428099387585
O      3.34366     0.22146     1.12017
H      2.73101     0.30324     1.87172
O      3.06401    -1.11619     0.69434
H      2.61360    -0.96130    -0.15945
O     -0.84151     0.53138    -0.52001
H     -1.14402     1.27802     0.03132
O     -1.87635     0.41907    -1.51629
H     -1.34277     0.57751    -2.31999
O     -2.04284     1.68645     2.95974
H     -1.32706     1.04718     3.17753
O     -2.91016     0.86949     2.17457
H     -3.65011     0.74268     2.77522
O      1.14363     0.49731     2.69979
H      0.78277     1.27638     2.23514
O     -0.05710    -0.08847     3.19629
H     -0.20202    -0.82738     2.56847
O      0.25492     2.53564     1.21740
H      0.80326     2.60239     0.41393
O     -0.96273     3.16306     0.82035
H     -1.45108     3.07734     1.65152
O      2.32819     1.97805    -0.64537
H      2.87006     1.39113    -0.07683
O      2.79853     1.64444    -1.94995
H      2.12562     1.00980    -2.23635
O     -0.38202     0.64266    -3.71642
H     -0.49173     1.08337    -4.56347
O     -0.69735    -0.71307    -4.03464
H     -0.12680    -1.16551    -3.39476
O     -0.47889    -2.06155     1.45437
H     -1.16036    -2.02346     0.74982
O      0.61452    -2.69114     0.78850
H      1.37699    -2.20856     1.14500
O      0.63974    -1.88942    -1.74752
H      0.54056    -2.41553    -0.92996
O      1.33473    -0.75999    -1.22672
H      0.58614    -0.24850    -0.84782
O     -2.39170    -3.00069    -1.39792
H     -3.20000    -3.45783    -1.15410
O     -2.39066    -1.96570    -0.42526
H     -2.29663    -1.14862    -0.95989
