 32
-1213.309818021338
O      1.19786    -0.30451     1.54747
H      1.30380     0.64617     1.30296
O      1.59814    -0.30177     2.91555
H      0.77824     0.00050     3.33829
O     -0.36598     0.26507    -4.29912
H      0.28353     0.26090    -5.00766
O      0.01968    -0.91476    -3.59243
H     -0.77917    -1.07142    -3.05119
O     -1.08010    -2.42130    -1.20695
H     -1.18495    -2.06379    -0.29465
O     -1.95740    -1.57426    -1.95304
H     -2.72339    -2.14502    -2.08213
O     -1.83869     0.00319     0.91907
H     -1.36112     0.26025     0.10104
O     -1.23942    -1.25618     1.24031
H     -0.32404    -0.97183     1.46576
O     -0.17178     0.68845    -1.04581
H      0.64320     0.13359    -1.01577
O      0.23065     1.66038    -2.00562
H     -0.00062     1.17737    -2.81684
O      1.82130    -0.97761    -1.32471
H      1.41047    -1.36134    -2.11636
O      2.09459    -2.14717    -0.54592
H      2.19743    -1.73564     0.32046
O     -1.21104     1.56098     2.98469
H     -1.56584     0.95230     2.29810
O     -0.75734     0.62386     3.95794
H     -0.82620     1.15231     4.75701
O      1.25888     2.22798     0.78957
H      0.84985     2.34460    -0.08412
O      0.52570     3.15351     1.60890
H     -0.04981     2.55215     2.11054
