 32
-1213.3112076226191
O     -1.24318    -3.09934     1.42109
H     -1.64696    -3.19121     0.55051
O      0.11063    -2.84700     1.04635
H      0.34960    -2.14337     1.67756
O      0.64693    -1.59580    -1.20840
H      0.37498    -2.20159    -0.48449
O      1.39955    -0.63498    -0.45870
H      0.68043    -0.04825    -0.14024
O     -2.60520    -0.63015     0.62664
H     -2.21924    -1.14087     1.35347
O     -2.61928    -1.59921    -0.43645
H     -2.29413    -1.06315    -1.18332
O     -1.26683    -0.20871    -2.40529
H     -0.46215    -0.68427    -2.10852
O     -0.74758     1.12586    -2.50984
H     -1.05255     1.52275    -1.67400
O      1.97649     1.68679     1.41031
H      2.78642     2.05225     1.77958
O      1.57029     2.71003     0.50967
H      1.85548     2.36858    -0.37104
O      1.81151     1.99821    -2.02566
H      0.97243     1.72492    -2.44022
O      2.65564     0.87201    -2.29145
H      2.33479     0.21939    -1.63869
O     -1.02045     2.18684    -0.05464
H     -0.22934     2.70249     0.16777
O     -0.53013     0.92241     0.39406
H     -1.37378     0.42201     0.49915
O     -0.72892    -0.25179     3.05798
H     -0.74753    -0.65861     3.92913
O      0.54044    -0.68471     2.58546
H      0.94445     0.15607     2.31393
