 36
-1364.9805931236642
O      1.85082     1.78104     0.46299
H      1.45282     2.01146    -0.40061
O      3.05283     1.11967     0.06067
H      3.01665     0.33398     0.64358
O     -2.21111    -0.06648    -0.89270
H     -1.29962    -0.38851    -1.06300
O     -1.99996     1.33258    -0.71753
H     -1.57057     1.35489     0.16372
O      1.69669    -0.91586     2.52489
H      1.94354    -1.65298     3.09234
O      2.46520    -1.16050     1.35336
H      1.80092    -1.52608     0.73260
O      2.66375     0.13507    -2.36770
H      2.95658     0.54954    -1.52516
O      2.89347     1.20723    -3.27733
H      2.79491     0.74597    -4.11523
O     -1.55291    -2.68041     0.65039
H     -2.43384    -2.33949     0.87434
O     -0.85154    -2.49572     1.87440
H     -0.87649    -1.52687     1.99117
O     -0.74630     1.25811     1.61070
H      0.21018     1.09781     1.52770
O     -1.19613     0.12346     2.34951
H     -2.16617     0.25178     2.30394
O      0.86396     2.35427    -1.96452
H      1.59379     2.13795    -2.57118
O     -0.23151     1.77988    -2.68846
H     -0.92490     1.73465    -1.99811
O     -3.68524    -0.91304     1.11092
H     -3.29482    -0.46624     0.32760
O     -3.83301     0.19981     1.98186
H     -4.56808    -0.09164     2.52532
O      0.25858    -0.88250    -1.36869
H      1.07916    -0.59136    -1.81018
O      0.72520    -1.94851    -0.53501
H     -0.12648    -2.31307    -0.20198
