 28
-1061.639543481227
O      1.01976    -0.22759     1.04097
H      0.57447     0.41092     1.64683
O      2.04525     0.60042     0.47963
H      2.31331     0.04926    -0.28731
O     -1.65939    -1.45903     1.45168
H     -1.65751    -1.98596     0.61408
O     -0.88653    -2.28211     2.32286
H     -0.03722    -1.82212     2.28610
O     -0.41049     1.48544     2.37373
H     -0.65061     2.12567     1.68533
O     -1.67663     0.93767     2.74818
H      0.15466     1.58587    -1.67527
O      0.97545     2.76982    -0.59343
H      1.41514     2.10695    -0.01730
O     -0.04519     3.29368     0.24822
H      0.32033     4.14517     0.49802
O     -1.48164    -2.75967    -0.83965
H     -0.79046    -3.20251    -1.34276
O     -2.19071    -2.01995    -1.83615
H     -1.88040    -1.11741    -1.63344
O     -1.04993     0.28307    -1.03940
H     -0.44682    -0.09741    -0.37980
O     -0.15143     0.73970    -2.05314
H     -1.65275     0.06826     2.30132
O      2.77802    -0.71097    -1.69770
H      3.35209    -0.43876    -2.41956
O      1.64491    -1.24181    -2.38401
H      0.99553    -0.51160    -2.28927
