 28
-1061.6487606466587
O      0.87129     0.38224     1.38600
H      0.73027    -0.56357     1.18194
O      2.16620     0.45230     1.96639
H      2.59930     0.97914     1.28289
O      2.82646    -1.33635    -0.39033
H      3.65833    -1.73409    -0.10962
O      2.36687    -2.20723    -1.41590
H      1.59147    -2.59227    -0.97926
O     -3.43993     0.28767     0.80503
H     -2.75239     0.93696     1.08138
O     -2.88463    -0.92576     1.29859
H     -1.32792    -1.58723     0.87576
O     -1.32950     1.82942     1.23519
H     -0.49423     1.31832     1.29899
O     -1.08696     2.63609     0.08556
H     -1.49431     2.08287    -0.60380
O     -0.88599    -0.15819    -1.68931
H     -0.10590     0.41452    -1.53848
O     -1.95916     0.77699    -1.63351
H     -2.59301     0.31150    -1.06859
O     -0.40814    -2.52231    -0.50188
H     -0.60884    -1.76637    -1.08341
O     -0.40470    -1.88262     0.77188
H     -3.31161    -1.02278     2.15564
O      1.18118     1.48020    -1.25042
H      0.83179     2.16425    -0.65713
O      2.50447     1.29456    -0.74767
H      2.59561     0.32819    -0.81713
