 28
-1061.6465528589627
O     -3.21976    -0.90761     0.18506
H     -4.05475    -1.26809     0.50006
O     -2.28352    -1.86769     0.67211
H     -1.73822    -1.31274     1.28213
O      2.68415     0.01170    -1.62795
H      2.97723    -0.13693    -2.53047
O      1.34716     0.44783    -1.87590
H      1.26954     1.21143    -1.25927
O     -0.63374    -0.25107     1.95365
H     -0.52767     0.60690     1.48247
O      0.63752    -0.87193     1.75697
H     -1.26475    -2.34588    -0.71344
O      0.85628     2.22668     0.04729
H      1.28254     2.23919     0.93026
O     -0.50244     1.93986     0.40728
H     -0.86571     1.55277    -0.41666
O     -1.60111    -0.11760    -2.77513
H     -1.21327    -0.96477    -2.49353
O     -1.71460     0.56716    -1.53197
H     -2.40000     0.05367    -1.06889
O      0.51853    -1.80550    -0.74094
H      0.75888    -1.00929    -1.26486
O     -0.62806    -2.29748    -1.44653
H      0.57030    -1.24304     0.85112
O      2.64907     0.91098     2.09490
H      1.93178     0.24938     2.06924
O      1.90527     2.06344     2.48974
H      2.55266     2.54566     3.01053
