 36
-1364.9790626623164
O     -0.11532     3.37816    -1.05869
H     -0.66094     2.64428    -0.73356
O      0.61155     2.73956    -2.09827
H      0.13270     2.98866    -2.89753
O     -0.67768     0.00735    -2.63903
H     -0.99792     0.01275    -1.71086
O      0.27379    -1.06473    -2.59584
H      1.10952    -0.58314    -2.76289
O      0.23533     0.35087     2.05963
H      0.91189     0.93814     1.65479
O      0.99545    -0.82147     2.36643
H      0.28267    -1.42910     2.63388
O      2.47526     0.42049    -2.43224
H      2.00817     1.19110    -2.06888
O      3.24846    -0.02276    -1.32843
H      2.71287    -0.75401    -0.95711
O     -4.82408    -0.56811     0.95579
H     -5.46112    -0.55580     1.67662
O     -3.60611    -0.31749     1.65371
H     -3.11770    -1.13678     1.48157
O     -1.33825     0.16724    -0.07424
H     -0.77748     0.15798     0.73518
O     -2.07671     1.37555     0.14448
H     -2.83108     0.99526     0.63158
O      1.74075     1.94122     0.56375
H      1.58583     2.85330     0.27545
O      3.16634     1.84694     0.64575
H      3.33177     1.21943    -0.08342
O      1.86190    -1.86446     0.07609
H      1.70543    -1.43657     0.94414
O      0.52802    -2.25773    -0.25803
H      0.39848    -1.81286    -1.13185
O     -0.98563    -2.62909     2.63493
H     -0.98437    -3.58127     2.77348
O     -1.61878    -2.50864     1.36200
H     -0.84987    -2.41096     0.75829
