 28
-1061.6444912232325
O      1.38940    -1.04713    -0.45960
H      2.08869    -0.57332     0.03148
O      1.48065    -0.40998    -1.73424
H      0.94349    -1.02715    -2.28157
O     -0.16285     0.95609     2.38839
H     -1.07269     0.59070     2.39642
O      0.61380    -0.25286     2.36690
H      1.45245     0.08792     2.70324
O      0.55313     2.21272     0.16412
H      0.13879     1.81538     0.95644
O     -0.14070     1.53093    -0.88664
H      0.04607    -2.50500    -4.05446
O     -1.23712    -1.36624     0.03347
H     -0.27474    -1.19027    -0.05104
O     -1.84641    -0.53528    -0.95664
H     -1.42154     0.32855    -0.78372
O     -2.59069    -0.13194     1.98040
H     -2.31220    -0.67572     1.21185
O     -3.30029     0.93932     1.35453
H     -4.17575     0.81753     1.73366
O     -1.12175    -1.14194    -3.49385
H     -1.45145    -1.01867    -2.58216
O     -0.01837    -2.01462    -3.23071
H      0.55182     0.91507    -1.20758
O      2.93314     1.26919     1.62020
H      2.29972     1.69187     1.01805
O      3.35908     0.15902     0.84035
H      4.26876     0.37919     0.60751
