 24
-909.9792814716477
O     -0.70844    -0.57870    -2.02528
H     -1.19248    -0.39097    -1.18621
O     -1.17241    -1.87760    -2.36467
H     -1.56984    -1.69688    -3.22118
O      0.93691    -2.99424     1.42411
H      0.73990    -3.92721     1.30130
O      0.32488    -2.44750     0.25893
H      1.09245    -2.03941    -0.19426
O      1.80314     0.14280    -1.53641
H      0.94481    -0.24973    -1.78697
O      2.31186    -0.82671    -0.60991
H      2.28954    -0.28332     0.20384
O     -1.05230     3.10366     1.45844
H     -0.25035     2.78788     1.00205
O     -2.02779     2.74179     0.47282
H     -2.75353     3.33072     0.69757
O      1.10602     1.96612     0.25785
H      1.30291     1.50845    -0.58269
O      1.41320     0.90936     1.18061
H      0.52706     0.51958     1.31970
O     -0.95086    -0.35240     1.35594
H     -0.63845    -1.21399     1.00891
O     -1.80754     0.08068     0.29069
H     -1.90295     1.03618     0.48460
