 32
-1213.3109714716172
O      2.02641    -2.03907     3.14954
H      2.67943    -2.24585     3.82493
O      2.42340    -0.71927     2.78138
H      2.59591    -0.83482     1.82363
O     -0.53462    -1.01544     0.03804
H     -0.84586    -0.15246    -0.31771
O     -1.35637    -1.90438    -0.72831
H     -1.00922    -1.73350    -1.62736
O     -0.11303    -1.23149    -3.03573
H      0.50320    -0.48840    -2.88375
O     -1.07414    -0.62987    -3.89397
H     -1.00368    -1.18848    -4.67324
O      2.14699    -0.75067     0.12290
H      1.17253    -0.86082     0.04050
O      2.35584     0.65582     0.06709
H      1.70212     1.01270     0.71527
O      1.49580     0.85456    -2.42355
H      1.98770     0.78906    -1.57017
O      0.76588     2.06465    -2.22146
H      1.05082     2.58940    -2.97401
O     -1.69612     1.81097     0.13163
H     -2.40635     1.22614     0.49181
O     -1.49146     1.14596    -1.12144
H     -0.74829     1.64081    -1.52413
O      0.47551     1.57954     1.67325
H     -0.34853     1.72421     1.15993
O      0.03807     0.61173     2.63414
H      0.87269     0.13198     2.80439
O     -2.94049    -0.30653     2.35973
H     -1.99925    -0.09773     2.42725
O     -3.17744    -0.20555     0.95808
H     -2.72807    -0.98377     0.58792
