 20
-758.298501556143
O     -2.46260    -0.11136     1.82458
H     -2.25923    -0.45007     0.92895
O     -1.46183    -0.82148     2.57489
H     -1.75228    -0.64962     3.47466
O      2.55060     1.21864    -0.16627
H      1.82886     0.79203     0.33805
O      3.44741     0.11300    -0.33659
H      4.15499     0.35027     0.27090
O      1.02682    -1.65016     0.67243
H      1.92108    -1.51367     0.33324
O      0.73124    -0.32582     1.14697
H     -0.04006    -0.51319     1.72234
O     -0.28455     1.38433    -1.37448
H     -0.91270     2.02188    -1.72945
O      0.67878     1.28121    -2.42588
H      1.48248     1.46989    -1.91865
O     -1.68721    -0.78643    -0.65697
H     -1.02078    -0.12360    -0.93383
O     -2.77483    -0.47002    -1.53223
H     -2.82813    -1.28329    -2.04340
