 40
-1516.6404014998845
O      1.50993     3.45620    -0.23309
H      0.56504     3.44881    -0.02650
O      2.03077     2.68637     0.86473
H      2.50664     1.98754     0.38519
O      2.97393     0.54470    -0.51463
H      3.17987     0.87410    -1.40116
O      1.65762     0.07486    -0.81485
H      1.60082    -0.79279    -0.36177
O      0.37069    -0.12039     3.20014
H     -0.46723    -0.37452     2.75974
O      1.24667     0.06957     2.09058
H      1.33520     1.03783     2.03456
O     -3.64894    -2.38167    -0.90279
H     -2.75465    -2.72625    -1.01491
O     -3.43337    -0.98679    -1.06721
H     -3.29533    -0.66889    -0.14599
O     -0.62449     1.67606     0.27605
H      0.14709     1.22108    -0.10377
O     -1.12036     2.42992    -0.82688
H     -1.38771     1.72493    -1.46152
O      1.21963     2.04125    -2.77968
H      1.39366     2.69886    -2.08532
O      2.54741     1.58252    -3.05059
H      2.67825     1.87405    -3.95938
O     -1.71393     0.42717    -2.53883
H     -2.39161    -0.12701    -2.10023
O     -0.56804    -0.42095    -2.39367
H      0.15025     0.23618    -2.40283
O     -2.52109     0.05615     1.22073
H     -1.81213     0.68807     0.97236
O     -1.80705    -0.99192     1.87917
H     -1.43104    -1.47431     1.11378
O      0.26544    -3.14935     2.56545
H     -0.23738    -3.69482     3.17935
O      1.34021    -2.66124     3.37384
H      1.08558    -1.72222     3.44832
O      0.74625    -2.20721     0.12044
H      0.63274    -2.57298     1.02812
O     -0.61925    -2.00716    -0.26063
H     -0.54205    -1.45442    -1.07682
