 24
-909.9735193284049
O     -2.60416    -0.55984     1.42993
H     -2.50884    -0.07046     0.60008
O     -2.13838    -1.85336     1.04045
H     -2.93211    -2.39086     1.15634
O      0.85719    -1.22942    -1.61165
H      1.06698    -0.27937    -1.67514
O     -0.52940    -1.20960    -1.27384
H     -0.52016    -1.32598    -0.30621
O      3.11081     0.25009     0.73250
H      2.48827     0.09959     1.46006
O      3.32414    -1.05884     0.20920
H      2.47129    -1.26227    -0.20260
O     -1.52490     1.13656    -1.95315
H     -1.21173     0.20721    -1.86152
O     -2.57642     1.15556    -0.98232
H     -3.35658     1.19147    -1.54343
O      1.66295     1.35577    -1.20606
H      2.35251     1.11630    -0.54966
O      0.67212     1.89862    -0.31479
H     -0.09081     1.98326    -0.90972
O     -0.20044     0.42815     2.61708
H     -1.05485    -0.01957     2.62289
O      0.33256    -0.10361     1.39808
H      0.34803     0.69837     0.83129
