 32
-1213.3109994010852
O      3.19160    -0.36158     0.96912
H      3.76949    -1.02292     1.36397
O      2.26520    -0.13872     2.03696
H      1.81902     0.69112     1.74381
O     -1.32350    -1.51927     0.22503
H     -0.78782    -1.88339     0.97247
O     -2.62495    -2.04473     0.47531
H     -3.01087    -1.30102     0.95763
O     -1.14762    -0.30107    -2.13896
H     -1.29755    -0.80945    -1.31496
O     -1.48523     1.03871    -1.74211
H     -2.30837     0.92086    -1.23059
O      0.84073     1.84504     1.05134
H      1.05374     2.10137     0.11738
O     -0.28078     0.98654     0.92420
H      0.01177     0.27508     0.32827
O      1.66180     2.26795    -1.45658
H      1.79768     1.38833    -1.86471
O      0.58399     2.80514    -2.22140
H     -0.13485     2.18196    -2.01592
O      1.34096    -0.89895    -0.83939
H      2.12304    -0.58357    -0.34442
O      1.53911    -0.34296    -2.14544
H      0.61155    -0.36342    -2.45087
O      0.49201    -2.18216     2.04475
H      1.06964    -1.44567     2.31535
O      1.40243    -2.99730     1.29871
H      1.31752    -2.62019     0.41041
O     -2.98026     0.76027     1.27146
H     -2.02917     0.93123     1.12741
O     -3.53488     1.13185     0.01416
H     -3.95693     1.97526     0.20487
