 36
-1364.978933966268
O      4.34448    -0.49433     1.66196
H      3.65078     0.18771     1.65911
O      4.32898    -0.83797     0.26980
H      5.23572    -1.12483     0.12486
O     -3.46200    -0.69531    -0.54062
H     -3.47533     0.15608    -1.01843
O     -3.77221    -0.29573     0.79167
H     -2.89307    -0.16865     1.17764
O     -1.99275    -2.72798     0.34778
H     -2.69060    -2.13896    -0.02050
O     -1.08429    -2.89111    -0.74195
H     -1.11338    -2.02402    -1.17345
O      0.66491     0.40473    -1.80649
H      1.08898    -0.30589    -1.27749
O     -0.65087    -0.13795    -1.93342
H     -1.14207     0.60724    -2.33028
O     -0.31773    -0.21901     1.13246
H      0.58708    -0.59175     1.11518
O     -0.99833    -0.91521     2.17925
H     -1.28870    -1.71106     1.69352
O      0.44557     2.63419    -0.42456
H      0.65255     1.90032    -1.04360
O     -0.80033     2.18201     0.09986
H     -0.57942     1.30498     0.48371
O     -2.93062     1.84315    -1.47800
H     -2.16676     2.09298    -0.90652
O     -2.32481     1.75404    -2.76057
H     -2.62581     2.56252    -3.18683
O      2.17698     1.14139     1.76709
H      1.69205     1.20916     2.59838
O      2.46456     2.50535     1.44429
H      1.76008     2.67656     0.79005
O      1.82600    -1.48578    -0.38700
H      2.75806    -1.37702    -0.08661
O      1.32963    -2.47370     0.51355
H      0.53413    -2.77972     0.03680
