 40
-1516.6449860118087
O      3.45091     1.71913     1.77715
H      3.95169     0.92543     1.52541
O      2.15984     1.25035     1.39155
H      1.58024     2.03868     1.44448
O     -1.94436    -1.27599    -3.89816
H     -1.55046    -1.02980    -4.74101
O     -0.81086    -1.48155    -3.06252
H     -0.56109    -0.56341    -2.81117
O     -0.03635     2.71841     1.06166
H     -0.41965     2.33571     0.24917
O     -0.99366     2.36195     2.04975
H     -0.56779     1.59528     2.47228
O      4.21945    -0.77875     0.94224
H      3.67585    -0.91678     0.13700
O      3.62984    -1.71620     1.83879
H      4.37305    -2.29948     2.02317
O     -3.08349     0.11950    -1.95362
H     -2.88181    -0.41793    -2.74438
O     -3.74470    -0.84162    -1.13560
H     -4.41222    -0.28857    -0.71882
O      0.10024    -1.63029    -0.19255
H      0.20622    -1.54114     0.78212
O     -1.14823    -2.31360    -0.30051
H     -1.23829    -2.32458    -1.26390
O     -0.09604     0.96893    -2.32867
H      0.81671     0.91019    -1.95762
O     -0.84742     1.43235    -1.20433
H     -1.71317     0.99897    -1.36266
O      2.28823     0.62041    -1.16811
H      2.25812     0.87636    -0.21511
O      2.47080    -0.79752    -1.07736
H      1.56482    -1.11571    -0.87566
O     -0.40337    -0.13876     2.89314
H     -1.21286    -0.43759     2.42095
O      0.59846    -1.00317     2.35159
H      1.37941    -0.42747     2.37027
O     -3.00109     0.86817     0.94930
H     -2.35937     1.45193     1.39811
O     -2.59772    -0.42252     1.43403
H     -2.49905    -0.92171     0.60668
