 36
-1364.9792739340423
O      1.85213     1.57178    -2.25262
H      1.18602     1.44457    -2.94676
O      1.15975     2.56627    -1.46529
H      1.60077     2.41437    -0.60844
O     -0.62800     1.35260    -3.30520
H     -0.84216     0.45457    -2.99741
O     -1.32262     2.17072    -2.35069
H     -0.55030     2.57602    -1.90885
O     -1.14630     0.92409     0.25207
H     -1.31875     0.51338     1.12277
O     -2.33545     0.59788    -0.48102
H     -2.16766     1.19420    -1.24365
O     -2.21998    -2.93095     0.89757
H     -1.30002    -3.20887     0.78051
O     -2.46058    -2.31992    -0.36750
H     -2.75390    -1.43214    -0.11312
O      0.10320    -0.78146    -1.37156
H     -0.31063    -0.06870    -0.82077
O     -0.92014    -1.14127    -2.29870
H     -1.45846    -1.72581    -1.73836
O     -0.10866    -1.14493     2.72215
H      0.18926    -1.69779     1.96433
O     -1.44422    -0.76570     2.34752
H     -1.86714    -1.62293     2.17411
O      1.32598     1.14840     2.83385
H      0.81043     0.32390     2.94819
O      0.30055     2.13677     2.76665
H      0.57125     2.71791     3.48573
O      0.62895    -2.49641     0.56452
H      0.53731    -1.95995    -0.25638
O      1.99508    -2.34754     0.92750
H      2.19266    -1.42445     0.68273
O      2.57587     1.46639     0.49555
H      2.16935     1.33552     1.38209
O      2.67818     0.11284     0.03675
H      2.51216     0.24972    -0.91080
