 32
-1213.3105137590856
O      2.01323    -1.69873     0.73078
H      1.71287    -1.90096    -0.17526
O      3.20648    -0.95281     0.51044
H      2.83481    -0.09121     0.23810
O      1.17536    -2.59591    -1.66463
H      1.66621    -3.35591    -1.99736
O     -0.14733    -3.12247    -1.56626
H     -0.42167    -2.74552    -0.70803
O      0.35787     0.60885    -2.56302
H     -0.24051     1.38227    -2.55748
O     -0.57902    -0.44183    -2.31261
H     -0.08123    -1.22498    -2.59156
O     -1.17118     2.73986    -2.08294
H     -2.05150     2.92063    -2.42509
O     -1.45464     2.57462    -0.69047
H     -0.58048     2.27886    -0.35572
O      0.78482     1.60334     0.38486
H      0.91510     1.07083     1.20132
O      1.88248     1.17106    -0.42252
H      1.40801     0.86137    -1.21753
O     -0.99733    -1.75900     0.63863
H     -0.61260    -1.41437     1.47421
O     -1.67028    -0.59793     0.14140
H     -1.24475    -0.47324    -0.72794
O      1.17633     0.01087     2.49903
H      1.59640    -0.74528     2.02817
O     -0.07885    -0.57641     2.86428
H     -0.64700     0.21129     2.90969
O     -1.81075     1.30394     2.01306
H     -2.00113     0.65248     1.30529
O     -2.94656     2.15287     1.96042
H     -2.61545     2.86969     1.40863
