 32
-1213.3101153599246
O      1.10853    -0.12543     2.38081
H      1.60853     0.54639     1.87959
O      0.11136     0.67038     3.01038
H      0.31006     0.52344     3.93914
O      2.71521    -1.76191    -0.73659
H      1.84752    -2.01856    -0.39631
O      2.34080    -1.13102    -1.97092
H      2.75735    -0.25903    -1.82070
O     -3.94948    -0.84829    -0.29513
H     -3.64638    -0.61083     0.59070
O     -3.53058     0.32282    -1.00859
H     -2.78847    -0.02119    -1.53761
O      0.44292     1.57200     0.27474
H     -0.50474     1.78137     0.43553
O      0.69984     2.13692    -1.01438
H      0.31100     1.46343    -1.60560
O      3.17014     1.06373    -0.75805
H      2.36860     1.61893    -0.73395
O      3.21706     0.54344     0.57361
H      3.29960    -0.40057     0.37480
O     -0.11086     0.07300    -2.57421
H      0.64629    -0.53671    -2.51236
O     -1.12889    -0.63063    -1.85981
H     -0.70378    -0.78851    -0.99118
O     -0.69622    -2.53594     0.96955
H     -1.55212    -2.41614     0.54169
O      0.05170    -1.50761     0.35038
H      0.37641    -0.98911     1.11987
O     -2.09389     0.30174     1.45697
H     -1.34708     0.40848     2.07413
O     -2.13887     1.61297     0.86508
H     -2.72402     1.41646     0.10391
