 16
-606.6294365824924
O     -0.01924     0.58286     0.94854
H     -0.38082    -0.29312     1.12727
O      0.83939     0.34063    -0.17349
H      0.53826     1.05734    -0.76731
O      1.23961    -1.14335     3.38666
H      2.15873    -1.38037     3.55143
O      1.26579     0.27634     3.59688
H      1.11571     0.59086     2.69470
O     -0.29744     2.04545    -1.88835
H     -1.12867     2.51086    -1.74023
O     -0.55015     1.30691    -3.08287
H     -0.71829     0.41767    -2.73695
O     -0.54703    -1.41511    -1.81471
H      0.08338    -1.04749    -1.17215
O     -1.65958    -1.68632    -0.95288
H     -1.77272    -2.63056    -1.10007
