 28
-1061.6363429846901
O     -1.17875     0.46738    -0.84981
H     -1.44723     1.39716    -0.75208
O     -1.58292     0.13105    -2.17689
H     -0.71294    -0.00713    -2.58002
O     -0.86467    -1.71323     1.86854
H     -0.02510    -1.22661     1.81048
O     -1.81599    -0.74333     1.42833
H     -1.55909    -0.53942     0.50558
O      0.10968     1.20417     3.13785
H      0.04651     1.09564     4.09193
O     -1.24775     1.50407     2.80039
H      1.12215    -1.28135    -0.19842
O     -1.06603     3.03816     0.42540
H     -1.10260     2.68908     1.33263
O      0.34409     3.05574     0.21261
H      0.51079     3.99149     0.05375
O      0.30547    -3.35739    -0.27072
H     -0.35420    -3.08109     0.37997
O      0.17316    -2.26610    -1.18794
H      0.50618    -2.63109    -2.01982
O      1.84356     0.47027    -0.17462
H      1.22258     1.11410     0.20309
O      1.48614    -0.72667     0.51930
H     -1.52437     0.66200     2.37305
O      2.12412    -1.11438    -3.04227
H      2.88653    -0.76285    -3.51377
O      1.36834     0.07105    -2.78896
H      1.59387     0.24573    -1.84863
