 16
-606.6360367200231
O     -1.37336     0.06052     0.98591
H     -0.48185     0.28267     1.30008
O     -1.91170     1.33083     0.61798
H     -1.48659     1.48010    -0.24271
O      2.29635    -1.17427     2.43103
H      1.77105    -1.20215     3.23659
O      1.43130    -0.45139     1.55044
H      1.30184    -1.10166     0.84460
O     -0.60388     1.52252    -1.83435
H     -0.40478     0.58367    -1.96158
O      0.69831     2.07198    -1.62735
H      0.78251     2.64786    -2.39362
O     -0.88380    -1.28500    -1.23001
H     -1.21951    -0.88488    -0.39717
O      0.36352    -1.81970    -0.77006
H      0.15658    -2.75583    -0.71832
