 24
-909.9786994362344
O      0.14544    -3.15169     0.60431
H      0.34205    -2.41304     1.21325
O      0.13020    -2.47037    -0.64706
H      1.03853    -2.13508    -0.73695
O     -2.31903    -0.54791     0.21708
H     -3.08574    -1.12781     0.27216
O     -1.85352    -0.77618    -1.10946
H     -1.12204    -1.41626    -0.94876
O      1.99458     0.20024    -0.32332
H      1.35651     0.75376    -0.84206
O      2.24602    -0.87537    -1.22559
H      3.19770    -0.80864    -1.33311
O     -0.88354     1.46548    -2.33019
H     -1.28253     0.68656    -1.90814
O      0.18043     1.75958    -1.42230
H     -0.25208     2.29828    -0.72924
O      0.79820    -0.84870     1.82279
H      1.28390    -0.39694     1.10652
O     -0.35692    -0.02667     1.94664
H     -0.96620    -0.34650     1.25219
O     -0.69220     2.96457     0.81568
H     -0.60993     3.87652     1.10759
O      0.51387     2.39370     1.32828
H      0.16258     1.55144     1.68609
