 28
-1061.6439318621374
O     -0.42853    -0.49712    -2.11071
H     -0.55661     0.36422    -1.65376
O     -1.09242    -1.40503    -1.22537
H     -0.50535    -2.17047    -1.30080
O      1.59436     0.16724     2.17944
H      1.00199    -0.49948     1.78112
O      0.62433     1.12947     2.59781
H      0.49980     1.62871     1.76982
O     -1.44469    -0.50606     2.24661
H     -0.82126     0.11060     2.67968
O     -0.51209    -1.15700     1.37465
H      1.15279    -1.42992    -2.84500
O      0.33739     2.02408     0.09905
H      1.03667     1.50713    -0.35975
O     -0.75323     1.81298    -0.80459
H     -1.52829     1.81970    -0.20451
O     -2.82663     1.44809     0.88426
H     -2.54768     0.66879     1.40195
O     -3.86253     0.91080     0.06651
H     -4.59854     1.47579     0.31847
O      1.33994    -2.89907    -1.72634
H      1.57007    -3.71001    -2.18988
O      1.94611    -1.91206    -2.56982
H     -0.89034    -1.03443     0.48095
O      3.27427     0.68328     0.03679
H      2.78390     0.52940     0.86349
O      2.22899     0.52438    -0.92976
H      2.41630    -0.34438    -1.32073
