 16
-606.637322210537
O     -2.11929    -0.61713     2.04687
H     -2.96163    -0.24614     2.32632
O     -1.81492     0.21300     0.92247
H     -1.03948     0.70192     1.23780
O      0.70571     1.68320     1.05885
H      0.94940     1.49793     0.12583
O      1.58468     0.74811     1.71028
H      2.31067     1.32413     1.96553
O      1.45780     0.56493    -1.23303
H      0.75290    -0.08166    -1.41727
O      2.48396    -0.27859    -0.69978
H      2.22981    -0.27477     0.23213
O     -0.71490    -1.10073    -1.40159
H     -1.34575    -0.76675    -0.74426
O     -1.51906    -1.15997    -2.58361
H     -1.53688    -2.10868    -2.74130
