 24
-909.9816362197946
O     -1.96605     0.30047     0.88174
H     -2.36247     0.40175    -0.00735
O     -1.39293    -1.00202     0.78158
H     -0.85497    -1.04063     1.59533
O      0.37352    -1.07554    -1.23660
H     -0.31136    -1.09096    -0.53990
O     -0.04510     0.01942    -2.05388
H      0.20984     0.77055    -1.48439
O      2.99966    -0.52062    -1.06977
H      2.04915    -0.70921    -1.20067
O      2.98553     0.24584     0.13478
H      2.78654    -0.40646     0.82105
O     -2.99109     0.78049    -1.53254
H     -3.57975     1.30908    -2.07841
O     -2.69506    -0.33116    -2.38246
H     -1.72086    -0.25245    -2.41109
O      1.50017    -0.49189     2.47630
H      1.06701     0.32152     2.14856
O      0.35333    -1.28812     2.77465
H      0.76066    -2.12969     3.00019
O      0.79436     1.66555    -0.12136
H      1.69566     1.28236    -0.02744
O      0.32048     1.54747     1.22346
H     -0.60232     1.24728     1.07812
