 28
-1061.6443821880596
O      1.89821    -1.26720    -2.08846
H      1.37908    -1.95121    -1.64980
O      1.20651    -0.10088    -1.65478
H      1.85549     0.31425    -1.04432
O      0.64903    -0.79250     1.51872
H      0.09601    -1.36416     0.94018
O     -0.33125    -0.14820     2.33747
H     -0.16979     0.77236     2.08805
O      0.54228     3.17654     0.23288
H      1.42763     2.86553     0.46289
O     -0.19680     1.96802     0.39227
H     -2.24859     0.28324    -0.74265
O     -0.08010    -3.29362    -0.62290
H     -0.57334    -4.11060    -0.50831
O     -0.94768    -2.34984     0.00676
H     -1.29457    -1.85099    -0.77058
O     -2.59658     0.00407     0.88343
H     -1.91411    -0.24123     1.54015
O     -2.95936     1.31733     1.29587
H     -2.20519     1.83697     0.98393
O     -1.31881    -0.70512    -2.05405
H     -0.36515    -0.50384    -2.17229
O     -1.77407     0.56310    -1.55437
H     -0.44342     1.70968    -0.51327
O      3.07320     0.89646    -0.02665
H      3.94912     0.51157     0.08151
O      2.59579     1.03923     1.31010
H      1.97235     0.28594     1.37092
