 36
-1364.9817272438115
O     -1.26711     1.60435     1.52431
H     -2.08212     1.17155     1.20897
O     -0.47825     1.45494     0.34007
H      0.39093     1.78406     0.61656
O     -1.01020    -1.01398     2.77353
H     -0.75513    -0.09316     2.59963
O      0.18052    -1.73885     2.46441
H     -0.10304    -2.29760     1.72209
O      2.05884    -0.77513    -1.49794
H      2.68990    -0.14594    -1.09292
O      1.14464    -0.88768    -0.40705
H      0.43977    -0.24266    -0.63453
O     -1.97153     0.26178    -2.07855
H     -1.63653     1.17063    -2.10947
O     -0.78075    -0.45946    -2.41945
H     -0.96864    -1.34685    -2.03585
O     -0.23907     2.46273    -2.82119
H     -0.29249     3.02076    -3.60578
O      0.97072     1.73752    -3.05216
H      0.61505     0.83881    -3.16181
O      2.24787     2.29753    -0.25933
H      2.00318     2.15015    -1.18488
O      3.10014     1.17589    -0.01236
H      2.78265     0.87760     0.86373
O     -2.80630    -1.39648     0.82155
H     -2.25611    -1.25067     1.61818
O     -3.02154    -0.05682     0.37476
H     -2.70950    -0.08579    -0.55009
O      1.54851     1.02661     3.18115
H      2.17277     1.02714     3.91223
O      2.17327     0.10846     2.28484
H      1.52936    -0.63055     2.27547
O     -0.29005    -3.03872    -0.14932
H      0.38429    -2.36119    -0.37428
O     -1.35792    -2.65460    -1.02615
H     -2.02928    -2.36177    -0.37635
