 40
-1516.6406895041487
O     -0.29082     0.60199    -3.53489
H     -0.22297     0.60048    -4.49451
O     -1.14477    -0.51145    -3.31405
H     -0.55313    -1.11304    -2.80725
O      1.57030    -2.75310     1.20437
H      0.78363    -2.56139     0.64453
O      1.07107    -2.34402     2.47607
H      1.01785    -3.17681     2.95250
O     -2.02200     1.82598     1.11204
H     -1.35333     1.16374     1.37544
O     -1.70347     2.11123    -0.25257
H     -2.35061     1.54766    -0.72111
O     -2.81695    -1.01636    -0.75952
H     -3.34978    -0.83439     0.04070
O     -3.05512     0.15714    -1.54824
H     -2.46159    -0.03451    -2.30251
O     -4.12171    -0.53590     1.53409
H     -4.96955    -0.84171     1.86875
O     -4.46279     0.78270     1.08719
H     -3.59380     1.22278     1.19755
O      2.15277     1.77304    -1.09270
H      2.53184     2.14080    -0.26273
O      0.96485     1.18707    -0.55610
H      0.23022     1.73175    -0.89838
O      4.34231     1.67400     1.40083
H      4.09702     0.85119     0.95395
O      3.14907     2.44561     1.29070
H      2.54815     2.03331     1.93294
O     -0.32766    -1.85652    -0.34403
H     -1.21531    -1.46135    -0.54304
O      0.32125    -1.93628    -1.61938
H      1.18903    -1.51631    -1.42844
O     -0.29615    -0.06248     2.09629
H      0.03121    -0.95816     2.30225
O      0.96808     0.61298     1.97872
H      0.98929     0.71138     1.00696
O      3.39427    -0.98232     0.10071
H      2.79316    -1.60126     0.55276
O      2.77761    -0.86758    -1.19064
H      2.74123     0.10121    -1.30029
