 16
-606.6307374342138
O     -2.48753     0.17986     0.91771
H     -2.19596    -0.48857     0.27778
O     -1.70293    -0.24749     2.03615
H     -2.19307     0.13999     2.76770
O      1.10042    -0.26693     0.21162
H      1.80981    -0.64735     0.73735
O      0.59407     0.76021     1.07742
H     -0.23955     0.35053     1.38371
O      2.02346     1.33784    -2.02175
H      1.67193     1.06299    -1.16642
O      2.49523     2.65662    -1.70706
H      1.89209     3.20417    -2.21922
O     -0.94988    -2.79182    -0.04090
H     -1.06772    -3.41057    -0.76777
O     -1.05410    -1.54495    -0.72942
H     -0.19643    -1.14634    -0.49028
