 36
-1364.97369917548
O      3.22569     1.17972     0.47374
H      2.66138     1.86214     0.03450
O      3.01721     0.09781    -0.42747
H      3.91656    -0.14841    -0.66217
O     -1.65630    -2.99046    -1.20849
H     -1.49546    -2.69180    -2.12054
O     -2.40298    -1.89656    -0.66912
H     -1.80673    -1.13364    -0.79473
O     -2.23401     2.89762     1.78654
H     -1.42029     3.34753     1.52220
O     -2.15185     1.74519     0.95482
H     -2.27961     1.02915     1.59219
O     -0.98071    -0.71974     1.91018
H     -0.23824    -1.14766     1.43043
O     -1.79244    -1.81875     2.28653
H     -2.28801    -1.95898     1.46677
O     -0.56085    -2.02226    -3.50331
H     -0.18291    -2.56715    -4.19976
O      0.57591    -1.30920    -3.03175
H      0.77375    -1.77555    -2.19072
O      0.51639     1.38456     2.41390
H     -0.18343     0.70451     2.41663
O      1.64511     0.53428     2.66011
H      2.27519     0.86739     2.00457
O      1.36971     2.69125    -0.59748
H      0.71046     2.22770    -1.15128
O      0.57419     3.19255     0.47593
H      0.66081     2.48688     1.15289
O     -0.36387     1.14523    -1.95193
H     -0.03349     0.47448    -2.56839
O     -0.90048     0.29477    -0.93768
H     -1.28142     0.95098    -0.32003
O      0.94048    -2.51234    -0.66568
H      0.03132    -2.85648    -0.55136
O      0.99789    -1.51662     0.35416
H      1.62264    -0.85551    -0.00390
