 28
-1061.6386243444847
O     -0.01443    -2.85582    -1.26450
H      0.52830    -2.74599    -2.05237
O      0.94082    -2.69889    -0.20892
H      1.10218    -1.72911    -0.26417
O     -0.83343     0.24356     1.53702
H     -1.40067    -0.47935     1.22324
O     -0.98053     0.19533     2.95967
H     -0.37318    -0.53707     3.13979
O      0.51131    -2.12206     3.01526
H      0.59123    -2.63960     3.82097
O     -0.35472    -2.96046     2.24054
H      2.27991     0.85281    -1.84963
O      0.85711     3.15193    -2.19981
H      1.10456     4.07582    -2.30660
O      1.79715     2.71976    -1.20416
H      1.19748     2.64629    -0.43289
O     -1.39289     2.74967    -0.41029
H     -0.91420     2.94549    -1.22719
O     -0.28197     2.59349     0.48056
H     -0.49233     1.72873     0.89990
O      1.08399    -0.15461    -0.85386
H      0.20219     0.03545    -1.24272
O      1.93223    -0.03835    -1.99491
H      0.16779    -3.03071     1.42328
O     -1.95613    -1.06286    -0.71065
H     -1.26896    -1.72562    -0.92636
O     -1.50304     0.05669    -1.48732
H     -1.85579     0.79501    -0.96901
