 24
-909.9769794954957
O     -1.86367    -1.44216     0.00546
H     -2.54080    -0.77547    -0.22868
O     -1.89760    -1.41963     1.43398
H     -1.73515    -2.34659     1.62695
O      0.38560    -0.83420    -1.32048
H     -0.36912    -1.11126    -0.76697
O     -0.07230     0.43749    -1.80051
H      0.19131     1.02795    -1.06709
O      3.02722    -0.43175    -0.89101
H      2.08410    -0.65391    -1.00660
O      3.06244    -0.00796     0.47164
H      2.78057     0.91943     0.38784
O     -3.17758     0.69417    -0.89125
H     -4.03710     1.06439    -1.11606
O     -2.72171     0.24698    -2.17363
H     -1.75977     0.40726    -2.08679
O      0.37358    -0.15429     2.12789
H     -0.53284    -0.49046     2.02885
O      1.09633    -1.31728     1.69054
H      1.88915    -0.89802     1.28572
O      0.46066     1.87784     0.44522
H      0.51511     1.13817     1.10193
O      1.80038     2.36528     0.42892
H      1.77057     3.06447     1.08742
