 32
-1213.3078876541076
O      1.44567    -0.56858    -0.35997
H      1.20436    -0.53090    -1.31290
O      2.54676    -1.47270    -0.29898
H      2.16172    -2.12835     0.29823
O     -0.37819    -2.84969     1.43870
H     -0.89463    -2.87240     2.25183
O      0.89149    -2.36187     1.87669
H      0.67276    -1.43214     2.09391
O      0.59813     0.22394    -2.74738
H     -0.13431    -0.23550    -3.20127
O     -0.13658     1.15202    -1.93820
H      0.59014     1.66971    -1.53676
O      0.90469     3.42039     2.80834
H      1.17238     2.89228     2.04007
O     -0.10754     2.56858     3.34895
H     -0.90509     3.10027     3.25623
O     -2.70063    -0.72623    -3.98858
H     -2.94174    -1.35042    -4.67798
O     -1.51430    -1.32730    -3.48566
H     -1.76139    -1.54330    -2.56725
O      1.88285     2.33156    -0.64479
H      2.78002     2.04133    -0.84449
O      1.69105     1.81273     0.67550
H      1.54027     0.85706     0.46946
O     -0.06151     0.07349     2.42006
H     -0.01474     0.96832     2.82285
O     -1.48486    -0.09433     2.34840
H     -1.61069    -0.10861     1.37635
O     -1.76047    -0.27993    -0.31056
H     -1.15486     0.24819    -0.87075
O     -1.45069    -1.61548    -0.73742
H     -0.99251    -1.97693     0.04672
