 20
-758.301895831739
O     -1.27890    -2.07070     1.53686
H     -1.63384    -1.16893     1.44448
O      0.03691    -1.92781     0.99415
H      0.51856    -1.44505     1.69298
O      2.30870    -0.20064     1.40735
H      1.77913     0.36859     0.83600
O      1.44757    -0.23679     2.55091
H      2.08738    -0.33310     3.26214
O      0.13023    -0.47998    -1.19373
H      0.06475    -1.08814    -0.41842
O      0.35027     0.77394    -0.52436
H      0.50452     1.33371    -1.31142
O      0.59531     1.83219    -2.92926
H     -0.17260     2.12672    -3.43209
O      1.05160     0.70810    -3.69483
H      0.78106    -0.01828    -3.11301
O     -2.31899     0.45818     1.55158
H     -3.26607     0.52773     1.70169
O     -2.24861     0.79305     0.15708
H     -1.28388     0.80326     0.01913
