 32
-1213.3056108512262
O     -1.13764     0.40156     0.29719
H     -0.30064    -0.09483     0.39980
O     -2.13445    -0.59266     0.51051
H     -1.85033    -0.91996     1.38891
O      1.73001    -0.82670    -3.43209
H      2.44821    -1.19579    -2.91012
O      1.01325    -0.11730    -2.43557
H      0.16953    -0.61597    -2.37017
O     -1.30626    -2.82985    -2.18651
H     -1.88947    -2.95233    -2.93975
O     -1.34895    -1.40832    -2.04243
H     -1.73411    -1.28575    -1.15089
O     -1.10069     2.29248    -1.64422
H     -1.13257     1.60743    -0.94993
O      0.30662     2.50865    -1.79038
H      0.53959     1.88432    -2.49359
O      1.72531     0.61350     0.42169
H      1.76941     0.48907    -0.54146
O      1.48110     2.01688     0.57654
H      0.99911     2.26917    -0.24542
O      0.43367    -2.05955     0.48760
H      0.99278    -1.94183     1.26776
O      1.39144    -2.34611    -0.53736
H      0.81105    -2.78032    -1.17426
O      0.40239    -0.80263     3.06279
H      0.52349     0.17325     3.11517
O     -1.01936    -0.91882     2.92476
H     -1.34950    -0.51240     3.73364
O     -0.85950     2.24175     2.82818
H     -1.02897     1.73495     2.01958
O      0.49386     1.89049     3.11217
H      0.95651     2.14981     2.29026
