 28
-1061.6428811996502
O     -1.81063     0.28483     0.87353
H     -1.20159     0.50115     1.60564
O     -1.21277    -0.90522     0.35856
H     -0.85593    -0.60540    -0.50468
O      0.27533     1.08826     2.45733
H      0.63508     1.62245     1.70458
O      1.14997    -0.03321     2.45998
H      1.81626     0.22437     3.10400
O      0.12307    -3.30010     0.66395
H     -0.52777    -2.57847     0.74217
O     -0.57507    -4.22187    -0.17017
H      1.93060    -0.86701     0.75874
O      0.52212     3.44156    -0.17908
H     -0.40580     3.18237    -0.29865
O      1.12417     2.22522     0.25894
H      1.08657     1.65470    -0.54060
O     -2.01778     2.45506    -0.62907
H     -1.97535     1.58066    -0.17305
O     -2.01902     2.07751    -1.99959
H     -2.94833     2.15098    -2.23765
O      1.86364    -1.85493    -0.83076
H      1.33908    -2.54410    -0.37452
O      2.62344    -1.28268     0.22629
H     -0.57403    -5.00338     0.38984
O      0.93280     0.44490    -1.73104
H      1.37253    -0.41106    -1.50373
O     -0.39442    -0.02160    -1.98796
H     -0.87314     0.81184    -2.16189
