 24
-909.9811828069312
O     -0.58090     0.70958     1.85725
H     -0.53560    -0.24826     1.65442
O     -1.91449     0.83968     2.34048
H     -2.37403     1.04354     1.51187
O      2.13326    -1.60369    -1.85257
H      2.67866    -0.98630    -1.34754
O      0.93075    -0.84315    -1.98295
H      0.28321    -1.43642    -1.55097
O      2.23003    -0.34201     1.23124
H      2.68682     0.02511     1.99438
O      2.86986     0.31561     0.13713
H      2.21142     1.01991    -0.04547
O     -2.57364     1.16150    -0.28969
H     -1.66841     1.31202    -0.64648
O     -2.83516    -0.15687    -0.74648
H     -3.35715    -0.00857    -1.54107
O     -0.89117    -1.92633    -0.35304
H     -1.63071    -1.28920    -0.33581
O     -0.33613    -1.78495     0.95393
H      0.60574    -1.66619     0.75930
O     -0.09844     1.46931    -1.15985
H      0.37363     0.66997    -1.48381
O      0.72942     1.91965    -0.08861
H      0.23523     1.58382     0.69170
