 32
-1213.3106575223471
O      2.37113    -0.10313     0.79570
H      2.98364    -0.60651     0.24258
O      2.56063     1.21966     0.27017
H      2.17530     1.75093     0.98162
O     -0.16448    -2.58279    -0.87651
H      0.78181    -2.45748    -1.05591
O     -0.55873    -1.21781    -0.78344
H     -0.36832    -1.01605     0.17640
O     -1.17785     1.46293    -0.06487
H     -0.69474     1.66537    -0.89395
O     -2.44135     2.11217    -0.20142
H     -2.98675     1.35196    -0.44091
O      0.38128     1.49616     2.88082
H     -0.14659     1.93100     3.55919
O      0.42354     2.46547     1.83073
H     -0.24376     2.10041     1.20869
O      0.91366     1.51096    -1.83534
H      1.60375     1.41802    -1.14846
O      0.91772     0.20825    -2.42777
H      0.29624    -0.29170    -1.85206
O      3.15972    -1.11864    -1.80427
H      2.43229    -0.56455    -2.16400
O      2.48383    -2.35882    -1.60855
H      2.74886    -2.86471    -2.38380
O     -1.63935    -0.91926     2.42958
H     -2.24611    -0.75408     1.69008
O     -0.36947    -0.81598     1.78063
H      0.02511    -0.04191     2.23751
O     -3.24956    -0.74788    -0.83545
H     -2.31103    -1.01959    -0.84611
O     -3.59483    -0.93789     0.53475
H     -4.09275    -1.76157     0.51964
