 16
-606.6378406329121
O     -1.84685    -0.23036     1.09360
H     -1.04980    -0.25860     1.64688
O     -1.93205     1.13478     0.71090
H     -1.04172     1.32938     0.38561
O      2.13098    -0.23306     1.34303
H      1.90959     0.54362     0.81222
O      0.83279    -0.78258     1.56896
H      0.72696    -1.36387     0.79473
O      0.74271     1.24335    -0.79747
H      0.36675     0.47374    -1.26268
O      0.86095     2.22271    -1.83292
H      1.80236     2.18679    -2.03592
O     -0.81845    -1.11521    -1.19539
H     -1.36803    -0.85448    -0.42335
O      0.02860    -2.11279    -0.62169
H     -0.52777    -2.89643    -0.64077
