 20
-758.2990404111289
O     -1.64531    -1.42449     1.46969
H     -2.24151    -1.65544     0.74436
O     -0.99921    -0.26235     0.93888
H     -0.44328    -0.62927     0.22015
O      0.48898     0.10656    -1.61162
H      1.37269    -0.08007    -1.24489
O     -0.14233    -1.16838    -1.41278
H     -0.97740    -1.00410    -1.87112
O      1.42847     0.87599     2.01402
H      0.54609     0.47977     2.09813
O      1.12000     2.20615     1.59133
H      1.20528     2.14968     0.63182
O      3.52674     0.82307    -0.55797
H      4.39087     0.39979    -0.58620
O      2.71643    -0.25375    -0.08074
H      2.41334     0.11379     0.77317
O     -2.71840     0.08634    -1.38541
H     -2.37197     0.36221    -0.52381
O     -3.60224    -0.96787    -0.98938
H     -4.46103    -0.59127    -1.20623
