 32
-1213.3105978414842
O      3.01909    -1.93003     1.49676
H      3.31342    -1.92157     2.41240
O      1.61206    -2.11829     1.61801
H      1.31751    -1.23127     1.93680
O      0.68875    -2.19200    -0.97898
H      0.88452    -2.34286    -0.03930
O     -0.48949    -1.38806    -0.88731
H     -0.35639    -0.73037    -1.60843
O     -2.44934     1.86104    -1.78164
H     -2.02550     1.92962    -0.90560
O     -2.73719     0.46883    -1.90897
H     -3.10871     0.24160    -1.03849
O      0.14490     1.89328     0.55305
H      0.32694     1.81718    -0.41075
O     -1.27034     2.04785     0.63558
H     -1.52605     1.26680     1.14884
O     -0.08185     0.58651    -2.65773
H     -0.86471     1.13974    -2.81476
O      0.81732     1.51480    -2.02717
H      1.63300     0.97179    -1.99184
O      2.53316     0.16472    -0.11376
H      2.90488    -0.56287     0.41739
O      2.63089    -0.35803    -1.44379
H      1.99382    -1.09849    -1.39924
O     -0.16518     0.33406     3.23448
H      0.10003     0.87810     3.98212
O      1.03759     0.32210     2.47289
H      0.81283     0.94431     1.73270
O     -2.11185    -0.66866     1.09216
H     -1.53936    -0.91987     0.33383
O     -3.39026    -0.54386     0.48624
H     -3.75873    -1.42831     0.56840
