 32
-1213.3110922665662
O      1.05626     0.92269     2.91045
H      1.83730     0.99598     2.34357
O      0.16082     1.85680     2.29275
H     -0.68084     1.35525     2.30319
O      1.47840    -2.29561    -1.16057
H      1.70672    -3.18425    -1.45146
O      2.01952    -1.46418    -2.18117
H      2.73520    -1.01861    -1.69120
O     -4.21174    -0.32280    -0.44880
H     -4.81977     0.04775    -1.09536
O     -3.53018    -1.32747    -1.20576
H     -2.66225    -0.89959    -1.34511
O      0.84065     1.55999    -0.32399
H      0.53295     1.95908     0.51817
O      0.67794     2.59467    -1.30227
H      0.23597     2.05633    -1.97714
O      3.17444     0.30404    -0.31166
H      2.37395     0.87024    -0.38984
O      3.15267    -0.04926     1.07451
H      2.58466    -0.83426     1.07838
O     -0.35226     0.42961    -2.56940
H      0.42646    -0.14603    -2.54835
O     -1.12963    -0.13728    -1.52173
H     -0.93680     0.44084    -0.76090
O     -0.20916    -1.66341     0.85927
H      0.26185    -1.81779     0.02151
O      0.85735    -1.77130     1.80464
H      0.65433    -1.04077     2.40876
O     -1.87489     0.15263     1.86777
H     -1.42555    -0.57886     1.39643
O     -2.24323     1.01122     0.78823
H     -3.04329     0.55839     0.45294
