 32
-1213.308365431757
O      0.66652    -3.00301     1.32661
H      1.42216    -2.47109     1.62256
O     -0.19337    -1.91990     0.95709
H     -1.04705    -2.21765     1.31099
O     -0.84408    -2.00948    -1.61205
H     -0.33751    -2.04121    -0.77715
O     -0.05030    -1.14494    -2.42652
H     -0.55881    -0.30107    -2.38679
O     -3.03218    -1.33716     0.20225
H     -2.45497    -1.54846    -0.55266
O     -2.77896    -2.43519     1.07747
H     -3.55959    -2.98875     0.96674
O     -1.22141     1.21869    -2.07669
H     -1.52806     1.39261    -1.16519
O     -0.21906     2.23075    -2.20591
H      0.58890     1.72410    -2.00334
O      0.88418     3.01668     0.61847
H      1.31794     3.66777     0.05648
O      1.46418     3.25951     1.90040
H      1.74501     2.35594     2.11180
O      2.23696    -0.41687    -1.25584
H      1.46986    -0.77403    -1.76014
O      2.00617     0.99437    -1.32429
H      1.82004     1.19601    -0.39164
O      2.37819    -0.90677     1.35249
H      2.52524    -0.91870     0.38546
O      1.54886     0.25690     1.44740
H      0.65295    -0.12531     1.43736
O     -1.51145     1.77712     0.51556
H     -0.70046     2.29346     0.67166
O     -1.29512     0.66690     1.39147
H     -2.09199     0.14735     1.22343
