 40
-1516.644373694972
O      1.78876     1.45167    -2.12317
H      2.20457     1.37946    -1.24482
O      1.84068     0.09944    -2.56712
H      0.94005    -0.02694    -2.93537
O     -0.91108    -0.16807     2.45439
H     -1.16100     0.78496     2.41472
O     -0.73405    -0.38579     1.05233
H     -1.10657    -1.28880     0.91498
O     -1.90079     0.95406    -0.89790
H     -1.48230     0.57415    -0.09110
O     -2.18797     2.29339    -0.49268
H     -1.52701     2.77749    -1.03790
O     -0.96177    -2.68374     3.54969
H     -0.95401    -1.73779     3.32921
O      0.19777    -3.08703     2.81025
H      0.68774    -3.58711     3.46981
O     -0.06722     3.03710     1.75676
H      0.52646     2.27152     1.70177
O     -1.32046     2.40946     2.02561
H     -1.77705     2.50351     1.16061
O      1.81589     0.68721     1.40988
H      1.43908    -0.13407     1.04105
O      2.71006     1.10349     0.38662
H      3.57040     0.84638     0.73501
O      0.69102     4.13946    -0.92128
H      0.31572     3.94691    -0.05214
O     -0.11751     3.32673    -1.77006
H      0.52372     2.65988    -2.07847
O     -1.62083    -2.76886     0.14264
H     -1.58854    -2.62112    -0.81772
O     -0.56806    -3.72281     0.32389
H     -0.33539    -3.56612     1.26203
O      1.26896    -2.75248    -1.34005
H      0.74560    -3.26185    -0.69087
O      1.64533    -1.62270    -0.53915
H      1.86470    -0.98669    -1.25287
O     -0.74275    -0.45366    -2.92531
H     -1.24621     0.05631    -2.26233
O     -0.96371    -1.80627    -2.52736
H     -0.05252    -2.10596    -2.33698
