 36
-1364.9819552364688
O     -0.90565     1.56740    -1.27297
H     -0.99278     0.59045    -1.24120
O      0.50459     1.67491    -1.48943
H      0.66263     2.63062    -1.31364
O     -0.11296     2.44324     1.70228
H      0.57109     1.74632     1.60350
O     -1.31200     1.73872     1.37462
H     -1.31908     1.82811     0.40069
O     -1.62212    -1.68665    -1.80138
H     -1.03783    -1.39854    -2.53735
O     -0.91181    -1.02213    -0.75697
H     -1.48292    -1.14503     0.04350
O      0.19670    -0.67601    -3.40552
H      0.52416     0.16641    -3.06243
O      1.37677    -1.47678    -3.46525
H      1.21452    -2.12778    -2.76439
O      1.81419    -0.03872     0.13908
H      1.31253     0.60385    -0.40384
O      1.60446     0.43009     1.46870
H      1.30240    -0.37624     1.94172
O     -1.96349    -0.57096     2.56361
H     -1.78606     0.28273     2.12211
O     -2.37614    -1.38825     1.46251
H     -2.02499    -2.24149     1.76032
O     -0.06701     4.54342     0.00980
H     -0.04017     3.85154     0.69967
O      1.08855     4.16172    -0.74864
H      1.35114     5.00003    -1.13852
O     -0.09037    -2.69220     2.13361
H      0.61587    -2.85581     1.46658
O      0.47315    -1.59201     2.87055
H     -0.35766    -1.14844     3.11780
O      1.71727    -2.70893     0.19137
H      1.92645    -1.76032     0.07326
O      0.89276    -2.99391    -0.94544
H      0.13068    -2.40694    -0.80253
