 32
-1213.305801800589
O      1.09106    -2.46509     1.40494
H      1.74063    -1.78497     1.15263
O      0.95387    -2.25321     2.81313
H      0.50571    -1.38862     2.82845
O     -2.84261     0.04933    -0.26883
H     -2.35500    -0.67223     0.17615
O     -2.66708    -0.35889    -1.63796
H     -2.06196     0.35050    -1.92246
O      1.49830    -1.58522    -3.15452
H      1.06887    -1.21365    -3.93015
O      0.96616    -0.73837    -2.13653
H      0.34573    -1.35207    -1.68184
O     -1.21746     2.12128    -0.29024
H     -1.92336     1.49593    -0.01266
O     -0.86563     1.56132    -1.56135
H     -0.13586     0.96149    -1.32067
O      1.92019     3.15804    -0.28466
H      2.57242     3.85749    -0.19636
O      0.99626     3.47199     0.75528
H      0.17220     3.17145     0.33951
O     -1.27684    -2.01475     0.28898
H     -0.47695    -2.28899     0.80181
O     -0.88402    -2.36211    -1.05628
H     -1.68982    -2.08878    -1.52128
O      1.34353     0.67470     0.34177
H      1.81286     1.52530     0.19830
O      2.38869    -0.30759     0.31280
H      2.32255    -0.57510    -0.61538
O     -1.43124     0.42511     2.31276
H     -1.67741     1.04280     3.00627
O     -0.04094     0.26308     2.56630
H      0.35270     0.54377     1.71460
