 20
-758.3151284829336
O     -1.33746    -1.99362     1.29891
H     -1.77999    -1.25234     0.85181
O     -0.08829    -2.02460     0.59577
H      0.53319    -1.78837     1.30135
O      1.90046    -0.33508     1.69123
H      2.08010    -0.12866     0.75583
O      1.07719     0.77812     2.04441
H      1.48831     1.06287     2.86647
O      0.99617    -0.93302    -1.56607
H      0.59854    -1.32898    -0.76384
O      1.88156     0.04789    -1.00682
H      1.39696     0.86010    -1.25596
O     -0.08033     1.71317    -1.67069
H     -0.54107     1.87266    -0.82694
O     -0.96184     0.71114    -2.21154
H     -0.33346    -0.03358    -2.25291
O     -1.44471     1.33228     0.54837
H     -0.79403     0.86966     1.09786
O     -2.27819     0.26115     0.08427
H     -2.02918     0.26355    -0.85996
