 20
-758.3054354875657
O     -1.22732    -1.54860     2.00886
H     -1.38267    -1.61984     2.95561
O      0.06783    -0.95135     1.97340
H     -0.11055    -0.10927     1.51816
O      2.23789    -1.32713    -0.58674
H      2.28827    -0.35574    -0.53116
O      0.81929    -1.53624    -0.67662
H      0.62431    -1.87129     0.21329
O     -0.47658     1.23306     0.31205
H     -1.44008     1.14167     0.45283
O     -0.43681     0.74752    -1.03952
H     -0.00326    -0.12981    -0.92234
O      2.83086     1.90761    -1.57738
H      3.49642     2.51690    -1.24666
O      2.29631     1.40295    -0.35323
H      1.37529     1.70262    -0.41377
O     -2.78457     0.02345     0.47778
H     -2.35513    -0.72063     0.93410
O     -2.98257    -0.51053    -0.83092
H     -2.30596    -0.02694    -1.32563
