 36
-1364.9820664031013
O      3.05632     2.41156    -0.35549
H      2.85314     1.50517    -0.64162
O      1.77687     2.82347     0.13468
H      1.37247     3.22012    -0.66055
O     -0.11203     2.30737    -2.82271
H      0.48595     1.61290    -2.47944
O      0.18015     3.43268    -1.99044
H     -0.66343     3.48907    -1.50390
O     -0.06148    -2.84870     3.81845
H      0.21978    -2.55989     4.69191
O      1.10485    -3.50567     3.30970
H      1.45054    -2.81490     2.71145
O     -2.71244    -0.79608    -1.06675
H     -2.80537     0.14748    -1.33334
O     -1.59245    -1.18722    -1.85655
H     -2.01284    -1.64679    -2.58927
O     -2.01160     2.49040    -0.77713
H     -1.52851     1.80607    -0.27319
O     -2.50459     1.75321    -1.89258
H     -1.73962     1.83093    -2.49791
O     -1.09884    -1.66498     1.70555
H     -0.82610    -2.13496     2.52973
O     -1.94351    -2.62969     1.07607
H     -2.45747    -2.03782     0.51091
O      1.08745     0.09476    -1.94729
H      0.34362    -0.23008    -1.41622
O      2.20492    -0.11329    -1.08303
H      2.01217    -0.97910    -0.66140
O      0.60619     0.73830     1.23643
H      1.05211     1.52808     0.82257
O     -0.63127     0.63205     0.50895
H     -0.95108    -0.19692     0.92340
O      1.82156    -1.60876     1.50054
H      1.37124    -0.73366     1.45162
O      1.36089    -2.23484     0.29951
H      0.44907    -2.48639     0.53192
