 32
-1213.3091859333779
O      0.76867    -0.70210     0.48775
H      0.40810     0.11395     0.09503
O      2.16248    -0.54909     0.17146
H      2.42956     0.13346     0.82776
O     -1.16611    -3.38763    -2.34195
H     -1.29844    -4.21045    -2.82005
O      0.11772    -3.59630    -1.74891
H      0.58037    -2.79262    -2.05782
O     -2.33242    -1.78760    -0.49488
H     -1.98261    -2.48703    -1.07579
O     -1.95393    -0.61746    -1.24228
H     -1.88073     0.02601    -0.52162
O     -0.26907     1.62297    -0.37089
H     -0.30925     2.27810     0.35199
O      1.01587     1.89753    -0.95646
H      0.97095     1.23777    -1.68737
O      2.45460     1.44634     1.95848
H      1.58885     1.45967     2.40913
O      2.37252     2.70535     1.27051
H      2.07730     2.41854     0.38972
O      1.32012    -1.21771    -2.29553
H      1.73320    -0.96583    -1.44590
O      0.39365    -0.14644    -2.50833
H     -0.44745    -0.49375    -2.15361
O     -0.29998     3.08551     1.88358
H      0.58649     3.47389     1.91291
O     -0.06525     1.91413     2.68297
H     -0.78391     1.32962     2.37577
O     -2.81425    -0.56250     2.07150
H     -3.08263    -1.06723     1.28704
O     -1.63711     0.06353     1.57439
H     -0.98020    -0.65530     1.55903
