 16
-606.632262309668
O     -2.81509    -0.04004     0.60340
H     -2.24004    -0.75208     0.27057
O     -1.98289     0.53853     1.61128
H     -2.36371     0.17721     2.41726
O      0.78148     0.00881    -0.29738
H      1.27039     0.83628    -0.42744
O      0.62650    -0.02877     1.12723
H     -0.30286     0.24916     1.21890
O      1.76532     2.42278    -1.65835
H      1.71984     3.29376    -1.25152
O      2.94581     1.91201    -1.02403
H      3.37066     1.48699    -1.77587
O     -0.73573    -3.07739     0.28471
H     -0.85236    -3.76708    -0.37528
O     -1.08345    -1.92154    -0.47641
H     -0.24700    -1.41733    -0.45288
