 36
-1364.9839667094043
O      1.54140     1.49874     2.60664
H      1.89847     2.27382     2.13547
O      1.98151     0.46743     1.71724
H      1.57012    -0.32955     2.10133
O      0.58500    -1.83979     2.23084
H      0.97346    -2.37199     1.51216
O     -0.72381    -1.63130     1.70597
H     -0.74511    -0.66881     1.52618
O      1.11213     3.52430    -0.15241
H      0.37987     3.10914     0.34578
O      2.24140     3.26505     0.68528
H      2.71902     2.64853     0.10316
O      1.54213    -2.75254    -0.14047
H      0.70556    -2.93346    -0.63064
O      1.85363    -1.46428    -0.66570
H      2.57371    -1.64672    -1.27954
O     -0.79183     1.05269     1.42406
H     -0.05058     1.33254     2.00300
O     -1.06456     2.25036     0.69978
H     -1.34210     1.86752    -0.15596
O     -3.61181    -0.64893    -0.59481
H     -4.45866    -0.49077    -0.17119
O     -3.89313    -1.77735    -1.42276
H     -3.21219    -2.38403    -1.06924
O      1.52198     1.62846    -1.95953
H      1.24611     2.49175    -1.58604
O      2.59145     1.31438    -1.06746
H      2.16629     0.69870    -0.44226
O     -1.64035     0.89442    -1.49822
H     -2.38540     0.29961    -1.26977
O     -0.61559    -0.04590    -1.82034
H      0.17728     0.52912    -1.90829
O     -0.77430    -2.67219    -1.37997
H     -0.87960    -1.71681    -1.56030
O     -1.72648    -2.93513    -0.36247
H     -1.34253    -2.48100     0.41656
