 32
-1213.3049641370449
O      2.64888    -0.63053     3.03372
H      3.49483    -0.43733     3.45359
O      2.98775    -0.55224     1.64051
H      2.49177     0.25279     1.39456
O     -0.93553    -0.38027    -2.18189
H     -0.41877     0.25192    -2.70229
O     -0.51150    -1.66185    -2.64126
H      0.02836    -1.94387    -1.88925
O      1.25396     1.49077     1.55681
H      0.58176     1.81432     0.91518
O      0.45531     1.27809     2.73026
H      0.89025     0.48983     3.08722
O      0.13121     2.18309    -1.59904
H      0.93354     1.66158    -1.40943
O     -0.47328     2.23956    -0.30414
H     -1.23500     1.64978    -0.40116
O      2.32672    -0.27466    -2.37492
H      3.28372    -0.19607    -2.40336
O      2.04745     0.35517    -1.13402
H      1.58430    -0.39169    -0.68729
O     -1.72384    -0.18270     0.70397
H     -2.61831    -0.37416     0.34624
O     -2.00258     0.35142     2.00396
H     -1.14477     0.76129     2.20925
O      0.56972    -1.38799     0.09620
H     -0.30296    -1.00809     0.36335
O      0.75167    -2.47465     1.00405
H      1.52203    -2.14369     1.48568
O     -3.87726    -0.74874    -0.74808
H     -4.83336    -0.71626    -0.84412
O     -3.45281     0.28936    -1.63534
H     -2.62608    -0.11025    -1.96626
