 28
-1061.6334639710296
O     -0.40696    -0.48215    -0.70043
H     -0.59027     0.39828    -0.28791
O     -1.02126    -0.35405    -1.98383
H     -1.88579    -0.75295    -1.79367
O      3.23666     0.14374     1.10507
H      3.06701    -0.76994     0.84227
O      2.36814     0.79120     0.16545
H      2.28139     1.68332     0.52591
O     -0.30290    -0.41938     2.38775
H      0.17932    -1.15949     1.96262
O     -1.65404    -0.79029     2.12031
H     -0.08293     1.37242     1.33122
O      1.93205     1.20685    -2.46741
H      2.12241     0.98460    -1.54205
O      0.62270     1.76867    -2.33852
H      0.05691     0.98544    -2.47761
O     -3.06748    -1.42880    -0.35226
H     -2.50015    -1.45551     0.43387
O     -3.87853    -0.28799    -0.05009
H     -4.75129    -0.68775     0.02085
O      0.40008     2.75148     0.13664
H      0.45859     2.49257    -0.80896
O     -0.55874     1.79483     0.59868
H     -2.10743     0.05210     2.23363
O      0.99986    -2.44261     1.20667
H      0.69193    -3.31896     0.95295
O      1.63613    -1.96902     0.02151
H      0.93509    -1.38056    -0.33426
