 32
-1213.305280217774
O      2.01234     0.25068     2.85742
H      1.38378     0.99563     2.84548
O      3.23694     0.91308     2.57189
H      3.86196     0.37524     3.06613
O     -3.54655    -1.67804    -1.44988
H     -3.94480    -1.80933    -2.31731
O     -2.89726    -2.92039    -1.18484
H     -1.97991    -2.70047    -1.41954
O      2.56370     0.61186    -1.02514
H      2.18647    -0.28140    -1.04093
O      2.01804     1.13959     0.17489
H      2.69782     0.96534     0.85252
O      0.19969     2.21524     2.48602
H      0.30889     3.16559     2.59262
O     -0.27994     2.11904     1.15328
H      0.50926     1.76806     0.68773
O      0.04098     0.85918    -2.54079
H      0.89184     1.19898    -2.22794
O     -0.89662     1.76115    -1.93170
H     -1.37399     1.14367    -1.33837
O     -0.32647    -1.72381    -2.01288
H     -0.27078    -0.77108    -2.24484
O      1.02504    -1.99319    -1.61930
H      0.92547    -2.01794    -0.64736
O     -0.39191    -1.39529     1.40989
H     -0.81753    -0.88419     0.69726
O      0.97970    -1.44705     0.98765
H      1.40700    -0.94781     1.70559
O     -2.64789     0.90703     0.58170
H     -1.87943     1.39469     0.92383
O     -1.93718     0.01759    -0.27583
H     -2.66168    -0.54606    -0.64035
