 32
-1213.3039564344895
O      3.76011    -0.67191     0.89118
H      3.20336    -0.59299     0.08961
O      4.70657     0.37450     0.68215
H      5.52924    -0.11500     0.76685
O      0.15886    -2.11036     0.48077
H      0.30864    -1.76765     1.37504
O     -1.26395    -2.01620     0.35033
H     -1.31970    -1.55911    -0.50883
O     -1.09737     2.36259    -1.68142
H     -0.79781     2.02086    -0.80920
O      0.10775     2.32574    -2.44070
H      0.42441     3.23017    -2.36836
O      0.97293    -0.51035     2.91711
H      0.10512    -0.07763     2.87473
O      1.70846     0.50222     2.21385
H      2.53060     0.03470     1.97348
O     -2.49923    -0.01533    -2.26964
H     -2.10669     0.87442    -2.23791
O     -1.34263    -0.81003    -2.02066
H     -1.15934    -1.22480    -2.86966
O      1.58618    -0.31854    -2.21179
H      1.14826     0.53949    -2.27625
O      1.73794    -0.38863    -0.80001
H      1.07802    -1.06390    -0.52449
O     -0.30563     1.35781     0.68912
H      0.60293     1.16282     0.98927
O     -1.07020     0.75356     1.75116
H     -1.92268     0.57927     1.29303
O     -3.86086    -0.96209     1.18806
H     -3.04945    -1.48650     1.27551
O     -3.36537     0.19247     0.51047
H     -3.36553    -0.07273    -0.42363
