 28
-1061.6427569870164
O     -0.45646    -2.86064    -1.45375
H     -0.95986    -3.06800    -2.24532
O     -0.43976    -1.43897    -1.55075
H      0.52870    -1.25219    -1.57414
O     -1.72077    -0.56912     1.26569
H     -1.42001     0.36218     1.29077
O     -2.43754    -0.63519     0.02941
H     -1.72081    -0.90216    -0.58802
O      0.59642    -1.87331     1.28185
H     -0.33035    -1.54494     1.21869
O      1.17232    -0.88901     2.14220
H      2.00875     0.29730     1.28302
O     -2.35028     1.95040    -1.86972
H     -1.42802     1.94664    -1.58000
O     -3.01043     1.90160    -0.60183
H     -3.00933     0.93818    -0.42665
O     -0.95672     2.06082     1.11072
H     -1.77726     2.35295     0.67002
O     -0.10890     2.00576    -0.05470
H      0.75756     2.18782     0.34386
O      2.29520     2.15296     1.21152
H      3.11948     2.58642     0.97372
O      2.50634     0.86281     0.65682
H      1.23739    -1.36385     2.97613
O      2.76047    -2.01891    -0.70629
H      2.02992    -2.26285    -0.11864
O      2.18385    -0.90551    -1.39546
H      2.45321    -0.16214    -0.83096
