 32
-1213.3051221222856
O     -1.06364     0.43250    -0.26194
H     -0.15012     0.57868    -0.62179
O     -1.82094    -0.02669    -1.38505
H     -2.09773    -0.89223    -1.04719
O     -0.07363    -0.73412    -3.30916
H     -0.75638    -0.36156    -2.71863
O      0.48607    -1.75097    -2.47247
H     -0.23740    -2.40233    -2.42523
O     -1.85802    -2.80852    -0.52868
H     -0.98168    -2.65750    -0.12168
O     -1.49964    -3.42149    -1.76853
H     -1.50904    -4.36002    -1.55549
O      1.67940     1.38255    -2.24710
H      1.44029     0.57116    -2.71447
O      1.46199     0.95823    -0.90022
H      1.68927     1.76614    -0.39719
O      1.62966     3.12766     0.67796
H      2.19529     3.87665     0.88361
O      1.30476     2.63727     1.97307
H      0.32910     2.77441     1.99049
O      1.51458    -2.56883     1.09764
H      1.67792    -1.90286     1.78303
O      0.48865    -1.91847     0.35771
H      0.92703    -1.63399    -0.46630
O      1.18213    -0.01224     2.82776
H      1.30717     0.91313     2.55469
O     -0.23519    -0.16611     2.68629
H     -0.30222    -0.52874     1.78959
O     -2.09126     2.55592     0.96804
H     -1.76067     1.81163     0.42706
O     -1.31401     2.41819     2.16626
H     -1.43963     1.49111     2.41889
