 36
-1364.9744844712716
O      2.09158     1.20595     1.40618
H      2.07146     1.68123     0.54925
O      2.29104    -0.14219     0.99392
H      1.43756    -0.54910     1.21040
O     -2.71977     0.95872    -0.50273
H     -2.63515     1.70142     0.11655
O     -2.47226     1.54897    -1.77973
H     -1.52076     1.73138    -1.72714
O     -1.00217    -0.26700     3.26335
H     -0.93474    -1.08468     2.74582
O      0.33756    -0.09740     3.72539
H      0.21994    -0.17966     4.67728
O      2.15778    -1.41305    -2.05041
H      1.41601    -1.08043    -2.57965
O      2.75093    -0.18223    -1.62529
H      2.73666    -0.27711    -0.65326
O     -1.03548    -2.06413     1.02363
H     -0.47034    -2.61699     0.42935
O     -0.67342    -0.77357     0.52778
H     -1.54638    -0.36944     0.38332
O     -0.44228     2.61833     1.64632
H      0.21944     2.00868     2.00711
O     -1.69203     1.95129     1.83706
H     -1.45341     1.16374     2.36322
O     -1.39735    -0.97788    -2.47283
H     -2.08827    -0.31444    -2.61965
O     -0.31830    -0.15010    -2.02789
H     -0.34411    -0.30139    -1.05823
O      0.18459     2.62155    -0.96331
H     -0.01930     2.75928    -0.01694
O      1.58728     2.38008    -0.92624
H      1.68868     1.63686    -1.54058
O     -0.21628    -3.70185    -1.67285
H     -0.75772    -2.92159    -1.86142
O      0.64331    -3.20651    -0.65302
H      1.30205    -2.68306    -1.14843
