 20
-758.2978194523857
O     -0.53630    -2.00680     0.85540
H     -1.19478    -1.29340     0.97305
O     -0.36313    -1.97198    -0.56327
H     -0.89758    -2.72114    -0.84665
O      2.02738    -0.71119     1.45142
H      1.24370    -1.27612     1.44896
O      1.57634     0.32425     2.33447
H      2.40659     0.57250     2.74792
O      0.30494     1.00505    -0.06372
H      1.09390     0.94665     0.49983
O      0.53782     2.16923    -0.87243
H      0.58083     1.73903    -1.74121
O      0.71470     0.74873    -3.22392
H      1.57168     0.36949    -3.44433
O     -0.10226    -0.41094    -3.05855
H     -0.09917    -0.52410    -2.09516
O     -2.11239     0.25047     0.76808
H     -1.33319     0.74285     0.43205
O     -2.33560     0.89209     2.02441
H     -3.22698     1.22883     1.90096
