 32
-1213.310677587465
O      2.50408    -0.45426    -1.88448
H      1.62468    -0.79993    -2.15464
O      2.73405    -1.16628    -0.67522
H      2.04215    -0.80033    -0.09339
O      0.40865    -1.50966     1.80416
H      0.45417    -2.22842     1.14598
O      0.82451    -0.37953     1.02926
H     -0.00335     0.10923     0.85410
O     -0.00455    -1.12811    -2.31093
H     -0.32690    -1.88135    -1.78257
O     -0.74584    -0.04821    -1.73128
H     -0.17143     0.70632    -1.96481
O      0.02827     3.28645     0.37738
H      0.89661     3.10566    -0.02040
O      0.37934     3.87246     1.63830
H     -0.08530     3.28084     2.24368
O     -0.03567    -3.58438     0.19413
H     -0.35522    -4.48312     0.31647
O     -1.02008    -3.01460    -0.65646
H     -1.57999    -2.48824    -0.04023
O      0.91381     1.96643    -2.30584
H      1.36021     2.10100    -3.14746
O      1.98845     2.08020    -1.36503
H      2.35199     1.15965    -1.42260
O     -1.47014     1.18334     0.76747
H     -1.02570     2.02338     0.49858
O     -1.80710     1.53325     2.12798
H     -2.12865     0.66203     2.41721
O     -2.22323    -1.13596     2.12428
H     -1.26902    -1.34603     2.14267
O     -2.48550    -1.24835     0.71638
H     -2.24197    -0.35201     0.41376
