 40
-1516.6397541977142
O     -1.12509     0.40311    -2.08933
H     -1.71928     1.13759    -1.85220
O      0.12186     0.97288    -1.66519
H      0.75507     0.30696    -2.00561
O     -1.50096     2.70619     2.56477
H     -0.60224     2.89636     2.26435
O     -1.97339     1.85271     1.52792
H     -1.79894     0.95578     1.86707
O      1.56171    -1.83178     1.60524
H      1.27299    -0.89094     1.60453
O      0.51492    -2.48463     2.34494
H      0.41835    -3.26838     1.77736
O     -1.41706    -0.73955     0.56445
H     -1.34700    -1.58393     0.07286
O     -1.77116    -1.14837     1.88964
H     -0.92993    -1.56121     2.17582
O     -2.31213     2.59019    -1.02197
H     -2.17670     2.40615    -0.06534
O     -1.53668     3.76704    -1.20755
H     -2.19883     4.46533    -1.21330
O      2.63571    -1.30672    -1.20314
H      2.59587    -0.46903    -0.71453
O      1.81042    -0.99439    -2.32715
H      1.23394    -1.77252    -2.38052
O      0.91079     3.48285    -0.16311
H      0.01803     3.52296    -0.56749
O      0.75094     4.29211     0.99379
H      1.35433     5.01705     0.80680
O      0.73306    -4.46928     0.56626
H      1.29328    -5.22319     0.78330
O      1.42813    -3.89522    -0.53926
H      1.73667    -3.05272    -0.15780
O      0.91773     0.72959     1.18799
H      0.22150     0.62436     0.50592
O      2.04353     1.10863     0.39880
H      1.77012     2.01442     0.14429
O     -0.79432    -2.24517    -2.39172
H     -1.04281    -1.31079    -2.24010
O     -1.13334    -2.82323    -1.12257
H     -0.51818    -3.56879    -1.07819
