 32
-1213.3178539172704
O      2.30641    -0.46028     2.18922
H      2.59420    -0.32177     1.26653
O      1.59184     0.75741     2.40644
H      0.67563     0.51895     2.16527
O     -0.01495    -0.66522    -2.60574
H      0.06522    -1.26522    -1.84088
O      1.00395     0.30129    -2.33528
H      0.51863     1.14286    -2.44711
O     -2.91736    -0.27208    -1.19521
H     -2.67943     0.27228    -0.41487
O     -2.38015     0.52236    -2.25449
H     -1.59997    -0.00818    -2.50067
O     -0.21859     2.74420    -0.59839
H      0.73297     2.54874    -0.49108
O     -0.41490     2.54867    -1.99852
H     -1.31720     2.19385    -2.01465
O      2.26541     1.93920     0.13768
H      2.11981     1.82385     1.09844
O      2.60250     0.58907    -0.19060
H      2.04324     0.42992    -0.97400
O     -0.34761    -1.88249    -0.24354
H     -0.11059    -2.46648     0.50297
O     -1.48281    -2.52968    -0.81529
H     -2.06779    -1.75819    -0.96238
O      0.69234    -2.61298     2.25246
H      1.30439    -1.85686     2.37307
O     -0.37272    -2.24866     3.12580
H     -0.27512    -2.90805     3.81929
O     -1.79425     1.08727     0.78129
H     -1.23843     1.77960     0.36906
O     -0.80840     0.24352     1.37547
H     -0.76010    -0.50592     0.74504
