 24
-909.9761242290368
O     -3.04164    -0.85281     0.36355
H     -2.79629    -0.24319    -0.34458
O     -2.11179    -0.47812     1.37130
H     -1.52205    -1.24696     1.41196
O      1.15383    -1.58714    -1.11333
H      1.42333    -1.65289    -0.18794
O     -0.22123    -1.20947    -0.94071
H     -0.32302    -0.45346    -1.54982
O      2.50087     0.65073    -1.72691
H      2.08379    -0.23367    -1.66338
O      2.46514     1.03181    -0.35042
H      3.39717     1.07205    -0.11872
O     -0.87948     0.91921    -2.44066
H     -1.46664     0.90086    -3.20243
O     -1.78867     1.25971    -1.39602
H     -1.15446     1.59730    -0.72835
O      1.42510    -0.97212     1.75165
H      0.97670    -0.10081     1.70087
O      0.36104    -1.80459     2.22151
H      0.59008    -1.90467     3.15108
O      0.07958     1.92677     0.36939
H      0.96959     1.61919     0.09951
O     -0.09499     1.24876     1.61557
H     -0.95171     0.79287     1.49668
