 24
-909.9743163472234
O     -1.44463     0.84278    -1.03034
H     -1.97461     0.04873    -1.22838
O     -2.37173     1.65305    -0.28937
H     -1.87839     1.75189     0.53631
O      0.56431    -1.31069    -1.54620
H      1.18961    -0.60514    -1.82041
O      0.58066    -1.09879    -0.13382
H      0.13748    -0.23145    -0.04747
O      1.36438     1.94450    -1.53413
H      0.47280     1.56208    -1.55496
O      2.18689     0.78856    -1.64832
H      2.65863     0.78950    -0.80424
O     -2.07814    -1.90118    -0.08244
H     -1.20420    -2.04552    -0.47476
O     -2.80534    -1.47363    -1.23717
H     -3.71223    -1.51867    -0.92090
O     -1.27743    -0.18107     2.36093
H     -1.58942    -0.66194     1.57939
O     -0.44961     0.81654     1.75535
H      0.42357     0.60160     2.12027
O      2.47036     0.52344     2.06692
H      2.98470     0.25933     2.83539
O      3.09315    -0.23019     1.02373
H      2.37424    -0.83730     0.78786
