 36
-1364.971608875296
O      0.98543     3.77868     0.04102
H      1.66131     4.44952     0.18023
O      1.70192     2.79208    -0.69183
H      1.98567     2.16219     0.00970
O      0.51604     0.35353    -2.18284
H     -0.26532    -0.23382    -2.21898
O     -0.03890     1.63893    -2.46216
H      0.68209     2.19289    -2.11858
O     -1.67275     1.17450     1.95507
H     -1.27689     0.28895     2.03463
O     -0.51522     2.00754     1.86865
H     -0.63664     2.43859     1.00584
O     -1.55808    -0.89276    -0.53828
H     -2.08918    -0.07683    -0.63854
O     -1.50741    -1.39390    -1.88044
H     -1.67325    -2.33171    -1.70383
O     -1.81138     2.51124    -0.61844
H     -1.28416     2.14639    -1.35370
O     -2.82044     1.51046    -0.43031
H     -2.79162     1.47455     0.54035
O     -0.63412    -1.31240     2.45597
H     -0.15984    -1.40851     3.28988
O      0.18257    -2.03276     1.54151
H      0.74398    -1.33745     1.14823
O      2.25361    -2.31640    -1.06513
H      1.43799    -2.76635    -0.80155
O      2.07284    -1.03136    -0.49036
H      1.65260    -0.52626    -1.21789
O      1.65764     0.48478     2.03065
H      0.94785     1.15997     2.00142
O      2.60637     1.00306     1.09389
H      2.76350     0.20627     0.55762
O     -0.14655    -4.35951    -0.67716
H     -0.26757    -5.28991    -0.45611
O     -1.39731    -3.78844    -0.30343
H     -1.11991    -3.22508     0.43400
