 32
-1213.3088552631766
O      1.36057    -3.42507    -1.27141
H      1.61487    -3.48470    -0.34542
O      0.79380    -2.11528    -1.25896
H     -0.13859    -2.25056    -1.51342
O     -0.68385     0.04788     2.08215
H     -1.56203     0.38659     1.79516
O     -0.54260    -1.12652     1.27548
H      0.43407    -1.23547     1.27502
O     -2.49758    -1.20984    -0.52546
H     -1.77558    -1.33962     0.11654
O     -1.79564    -1.35306    -1.76349
H     -1.59017    -0.42506    -1.97160
O     -1.50683     2.46040    -2.21345
H     -2.10713     2.68425    -1.48911
O     -1.04912     1.19659    -1.73325
H     -0.08218     1.30101    -1.64511
O      1.32397     1.74171     1.53740
H      0.65050     1.08880     1.83169
O      0.50036     2.83479     1.13516
H      0.67757     3.47868     1.82730
O      1.73810     0.36964    -1.56010
H      1.50783    -0.57852    -1.49772
O      2.78389     0.46575    -0.59183
H      2.49121     1.24225    -0.09572
O      2.74091    -2.53564     1.36009
H      3.21527    -2.53459     2.19549
O      2.13539    -1.24750     1.38325
H      2.56431    -0.80090     0.62237
O     -2.85603     1.20441     1.00748
H     -2.92863     0.69666     0.18031
O     -2.48939     2.50891     0.56886
H     -1.54170     2.52244     0.76448
