 36
-1364.9768988635326
O     -0.50594    -0.85716    -2.30951
H      0.16497    -0.23922    -2.63363
O     -1.10534     0.01311    -1.34773
H     -1.75210    -0.57010    -0.87970
O      0.75173    -2.76698    -0.92122
H      0.15400    -2.17855    -1.42180
O      0.09472    -2.84613     0.34366
H      0.80483    -2.56728     0.94207
O      1.11444     0.88662     1.76510
H      1.69202     0.20743     2.16206
O     -0.02275     0.09698     1.44090
H      0.03624     0.03814     0.47106
O      1.13172     1.85351    -1.19187
H      0.41460     2.46280    -0.91326
O      0.83131     1.62455    -2.57259
H      1.69257     1.79686    -2.96773
O     -2.23836     2.66536    -0.97629
H     -1.86168     1.88282    -1.40223
O     -1.08662     3.21574    -0.31987
H     -1.26873     2.93429     0.60124
O     -3.24237     1.35879     1.12917
H     -3.25418     1.92632     0.33912
O     -2.02610     1.83110     1.72620
H     -1.43449     1.05157     1.74186
O      2.76191    -0.83645    -1.77758
H      2.29288    -1.64144    -1.50558
O      2.83141    -0.14372    -0.52692
H      2.21013     0.60071    -0.67518
O     -2.86735    -1.17618     0.19154
H     -3.22128    -0.39447     0.65620
O     -2.28195    -1.89831     1.27659
H     -1.50052    -2.28843     0.85431
O      2.88147    -1.05886     2.57294
H      2.82949    -1.69534     3.29104
O      2.70318    -1.91153     1.43698
H      2.88485    -1.25596     0.72759
