 24
-909.9833876546833
O     -1.56079     0.02211     0.56282
H     -2.25285    -0.01891    -0.13355
O     -0.85010    -1.19095     0.30975
H     -0.22693    -1.22013     1.06420
O      0.23703    -0.33451    -1.95824
H     -0.19555    -0.73113    -1.17618
O     -0.32846     0.98072    -1.91781
H      0.18523     1.38320    -1.18817
O      2.78327    -1.16579    -0.75037
H      2.07905    -0.76694    -1.28577
O      2.95041    -0.17844     0.26878
H      2.87189    -0.69660     1.08212
O     -3.49883    -0.09509    -1.23486
H     -3.92131    -0.83040    -1.69219
O     -3.28663     0.85794    -2.27450
H     -2.31661     0.86698    -2.31113
O      1.62518    -0.44308     2.81060
H      1.19441     0.34472     2.42083
O      0.67788    -1.44708     2.46258
H      0.33428    -1.71910     3.31960
O      1.14796     1.73723     0.17864
H      1.83758     1.04298     0.23339
O      0.44280     1.53139     1.40447
H     -0.38019     1.12788     1.06304
