 36
-1364.978652870872
O      1.68502    -0.99560     0.20304
H      0.84401    -1.31613    -0.20517
O      2.64797    -1.91555    -0.27222
H      2.99341    -1.40818    -1.01933
O     -1.80659    -1.12227    -0.59224
H     -1.58407    -0.43393     0.07414
O     -0.63631    -1.94588    -0.59080
H     -0.84977    -2.61858     0.09085
O      0.59492    -0.77347     2.94352
H      0.93764    -1.30223     2.21105
O     -0.79345    -1.12979     2.96273
H     -1.18580    -0.39415     2.44936
O      2.74557     0.36633    -2.01834
H      2.33943     1.03744    -1.43140
O      1.65754     0.12479    -2.90471
H      2.02782     0.35583    -3.76241
O      1.48713     2.07619    -0.36128
H      0.76001     2.73473    -0.39349
O      1.25865     1.46636     0.91092
H      1.56740     0.54653     0.73664
O     -2.07970     1.79474     1.73301
H     -2.18727     2.34110     0.93834
O     -1.26752     0.77588     1.18107
H     -0.35964     1.16310     1.20908
O     -0.69063     1.11999    -2.05760
H      0.14413     0.68680    -2.33662
O     -1.68134     0.40002    -2.78599
H     -1.87105    -0.30282    -2.13575
O     -1.75163     3.04465    -0.66207
H     -1.40814     2.31224    -1.23296
O     -0.55639     3.80032    -0.48201
H     -0.71040     4.56400    -1.04514
O     -1.03357    -3.45001     1.65860
H     -1.00433    -2.70478     2.30266
O      0.20740    -4.09348     1.93471
H     -0.09529    -4.94609     2.25969
