 40
-1516.6428895009929
O      0.45153     3.77078     0.70009
H     -0.44932     3.58336     1.00831
O      1.18304     2.67028     1.25013
H      1.61398     2.28784     0.45741
O      3.43327     0.77393    -0.44519
H      3.14006    -0.04482     0.00596
O      2.17645     1.32089    -0.84071
H      2.29859     1.49134    -1.77977
O     -2.77937     1.45099     0.91537
H     -2.04768     1.13915     1.48991
O     -2.27310     2.72635     0.48253
H     -1.73858     2.44254    -0.28139
O     -0.50641     0.82787     2.19295
H      0.16824     1.50689     1.98002
O      0.09186    -0.32485     1.60364
H     -0.68986    -0.87351     1.34026
O     -0.71006     2.00348    -1.55980
H     -1.40758     1.96731    -2.23180
O      0.06163     3.14539    -1.92608
H      0.24221     3.49030    -1.03236
O      0.18379    -0.69568    -1.50887
H      0.37622     0.22470    -1.24052
O      1.41160    -1.12293    -2.08744
H      1.79535    -1.61050    -1.33213
O      2.49776    -1.27987     1.01678
H      1.62134    -0.93576     1.28659
O      2.11602    -2.40701     0.21404
H      1.83213    -3.04748     0.90238
O     -1.83188    -1.80265     0.55433
H     -2.38471    -1.43098    -0.15797
O     -0.92922    -2.63369    -0.17885
H     -0.42543    -1.95736    -0.68815
O      0.47658    -4.77967     1.24840
H     -0.21240    -4.19274     0.90635
O      1.09693    -3.87465     2.16009
H      1.44379    -4.45992     2.83927
O     -3.19467     0.79623    -1.96144
H     -3.39634     1.07655    -1.05516
O     -2.71348    -0.52480    -1.71858
H     -1.81396    -0.49276    -2.07434
