 24
-909.9708253842192
O     -2.56264    -1.80242    -0.90031
H     -2.52221    -0.83738    -0.91182
O     -1.73304    -2.08545     0.22407
H     -0.96760    -2.52063    -0.18102
O      0.97971    -3.05743    -0.08076
H      1.59661    -3.72841     0.22771
O      1.82665    -1.90769    -0.14758
H      1.47375    -1.35274     0.57653
O      1.96334     0.64009    -2.30499
H      1.54499     1.38691    -1.85393
O      0.92466    -0.33545    -2.18616
H      1.34610    -1.00061    -1.60899
O     -0.18600     2.04528    -0.81864
H     -0.51963     2.50051    -0.02105
O     -0.98271     0.84861    -0.82756
H     -0.45796     0.31971    -1.47044
O      0.44654     0.00353     1.25361
H     -0.12769     0.32235     0.52349
O     -0.48172    -0.62202     2.14558
H     -1.03235    -1.13917     1.52930
O     -0.84000     3.13941     1.51212
H     -0.96333     4.04417     1.81146
O      0.50868     2.88956     1.91820
H      0.46268     1.93274     2.05543
