 36
-1364.9789236764639
O      4.03797    -0.27143     0.58678
H      3.80037     0.26296     1.36651
O      3.70703     0.64567    -0.45818
H      4.57112     0.81007    -0.84985
O     -3.39559    -0.26604    -0.85099
H     -3.22936     0.66744    -1.07595
O     -3.89337    -0.18014     0.48199
H     -3.11617    -0.41732     1.01007
O     -2.25037    -2.65427    -0.59699
H     -2.85399    -1.90180    -0.78575
O     -1.14917    -2.42980    -1.47941
H     -1.21778    -1.48380    -1.67217
O      0.96714     0.57705    -1.71209
H      1.27040    -0.33247    -1.51634
O     -0.40323     0.34629    -2.03249
H     -0.70119     1.24834    -2.24713
O     -0.62721    -0.69199     1.40430
H      0.21959    -1.16681     1.24363
O     -1.50599    -1.70068     1.88567
H     -1.67554    -2.21005     1.07131
O      0.95330     1.98690     0.49952
H      1.16845     1.50743    -0.32995
O     -0.45638     1.80751     0.56314
H     -0.53931     0.86324     0.81981
O     -2.41678     2.34978    -1.13230
H     -1.69105     2.26403    -0.46992
O     -1.69069     2.66943    -2.30836
H     -1.80137     3.62337    -2.36610
O      1.84367    -0.00788     3.03479
H      1.69159     0.30603     3.93201
O      2.57812     1.07863     2.47640
H      1.92994     1.45500     1.84523
O      1.61633    -1.92092     0.55434
H      2.51396    -1.57130     0.67140
O      1.48723    -1.91336    -0.87051
H      0.64971    -2.39281    -0.99639
