 20
-758.3047663930605
O     -2.22713    -1.49282    -1.38601
H     -2.27351    -0.67310    -0.85955
O     -0.80854    -1.73894    -1.33991
H     -0.77225    -2.68275    -1.52701
O      2.38135     0.54220    -1.25473
H      2.99558     1.10316    -1.74014
O      3.04273     0.40560     0.00747
H      2.46718     0.97815     0.54969
O      0.79842     1.50391     1.04011
H      0.42157     0.61352     1.21714
O      0.23283     1.77930    -0.25160
H      0.83153     1.25519    -0.80903
O      1.30941    -1.79725     1.09294
H      1.92814    -1.18028     0.68103
O      0.09580    -1.04789     1.06168
H     -0.26887    -1.30458     0.18612
O     -2.48975     0.67684     1.39122
H     -3.30492     1.17050     1.52621
O     -2.30885     0.85990    -0.01066
H     -1.44809     1.32693    -0.03017
