 36
-1364.9812893024034
O      0.79588     1.77882    -0.03975
H      0.88704     1.39175     0.85459
O     -0.55166     2.27935    -0.06160
H     -0.74372     2.15196    -1.01396
O     -1.35731     0.00555    -2.00975
H     -2.04259     0.23209    -1.34185
O     -0.97718     1.29540    -2.49946
H     -0.09219     1.09149    -2.85512
O      1.64036     0.56618     2.23891
H      2.53092     0.89475     2.03699
O      1.76257    -0.77886     1.76985
H      0.89384    -1.14761     2.05045
O      1.58110     0.52291    -3.02402
H      1.76039    -0.08272    -2.26961
O      2.42306     1.62609    -2.70880
H      3.08167     1.56921    -3.40709
O     -3.68446    -2.20193     0.82093
H     -2.79695    -2.51332     1.10036
O     -4.41351    -2.28320     2.03953
H     -5.11678    -2.88534     1.78552
O     -2.18365     0.60808     1.17508
H     -1.59652     1.29914     0.78452
O     -3.02747     0.31431     0.05257
H     -3.41228    -0.53939     0.33628
O      3.71297     1.83988     0.90794
H      4.58961     2.22797     1.00061
O      3.87460     1.01704    -0.24517
H      3.25170     1.44115    -0.85375
O      1.69949    -1.09670    -0.90106
H      1.95139    -0.95525     0.03314
O      0.37337    -1.59682    -0.73210
H     -0.17977    -0.93204    -1.20030
O     -0.75217    -1.42648     2.19077
H     -1.33540    -0.70642     1.86368
O     -1.05990    -2.50335     1.30106
H     -0.50236    -2.27795     0.52816
