 16
-606.6398545313015
O     -1.27862     1.60537    -0.40021
H     -0.30812     1.70117    -0.28469
O     -1.66648     1.65609     0.97837
H     -2.45747     2.20040     0.93391
O      1.77066     0.73269    -0.96295
H      1.05955     0.10869    -1.19048
O      1.27766     1.32783     0.23861
H      1.17949     0.56385     0.83471
O     -0.85727    -0.85166     1.22258
H     -1.15140     0.08185     1.25440
O      0.45168    -0.75355     1.80756
H      0.80320    -1.62271     1.59775
O     -0.15115    -1.19293    -1.36149
H     -0.57100    -1.21930    -0.48353
O      0.73863    -2.30640    -1.24037
H      1.14953    -2.29005    -2.10803
