 24
-909.977096395019
O     -2.30423    -1.95013    -0.20821
H     -3.12558    -2.41734    -0.38886
O     -2.78056    -0.67872     0.22563
H     -2.41623    -0.08979    -0.45469
O     -0.74420    -1.40889    -2.40276
H     -1.14597    -1.79169    -1.60520
O      0.58019    -1.94336    -2.38930
H      0.97233    -1.49076    -1.61498
O      1.98507     0.61410    -0.54169
H      1.36247     0.88754    -1.24652
O      1.40683    -0.65699    -0.18973
H      0.71193    -0.36083     0.43363
O     -1.21118     1.36266    -1.16946
H     -0.72486     1.40454    -0.33379
O     -0.15158     1.13925    -2.09879
H     -0.35980     0.22280    -2.39614
O      1.77912     1.96956     2.62379
H      2.23471     2.32751     3.39117
O      2.65787     0.91194     2.22876
H      2.62808     1.02382     1.26852
O     -0.19241     0.56223     1.52269
H      0.41552     1.04066     2.12640
O     -0.94207    -0.27103     2.41363
H     -1.76415    -0.33151     1.91510
