 24
-909.9775136465713
O     -2.14714     1.28004     0.65327
H     -2.09752     0.30662     0.52074
O     -2.45106     1.71904    -0.67051
H     -3.29386     2.15750    -0.51914
O      1.55214    -2.45275    -1.32561
H      0.61439    -2.19839    -1.30506
O      1.99527    -1.65143    -2.42525
H      2.74113    -2.16572    -2.74697
O      0.49408     1.09708    -1.64866
H      0.36037     1.90152    -1.12862
O      1.59701     0.51369    -0.92142
H      1.85233    -0.20175    -1.53406
O     -1.57580    -1.29148     0.23742
H     -0.84231    -1.45217     0.86444
O     -0.97344    -1.40611    -1.05680
H     -0.76120    -0.48108    -1.26519
O     -0.44704    -0.28924     2.72823
H      0.12988     0.44156     2.41733
O      0.27466    -1.40204     2.19413
H      0.32695    -1.97878     2.96088
O      1.08369     1.51342     1.51532
H      1.47823     1.02404     0.77149
O      0.26560     2.44796     0.79970
H     -0.62495     2.05800     0.90207
