 32
-1213.3055860086993
O     -1.82954    -3.53666     0.68245
H     -1.90608    -4.21058     1.36238
O     -1.07614    -2.53951     1.37387
H     -0.31092    -2.43293     0.78145
O      1.11680    -2.22565    -1.85614
H      1.74656    -1.56417    -2.17183
O      0.66280    -1.55828    -0.68554
H     -0.17293    -1.14754    -1.00711
O     -3.09321    -1.45193    -1.33725
H     -2.97286    -2.01566    -0.56351
O     -1.81421    -0.81837    -1.39158
H     -2.04150     0.12496    -1.35857
O     -0.60625     1.51849    -0.64022
H     -0.24827     2.38208    -0.90282
O     -1.89818     1.88670    -0.13828
H     -2.02253     1.19931     0.55792
O      2.27395     2.77219    -1.34724
H      3.05146     3.33855    -1.37419
O      1.42096     3.46370    -0.44010
H      1.56602     2.93500     0.37364
O      3.05760    -0.19847    -0.14446
H      2.41026    -0.89517     0.03608
O      2.69870     0.10372    -1.49910
H      2.46970     1.04386    -1.43015
O      1.90047     1.58813     1.42941
H      2.54453     1.02835     0.94845
O      0.78797     0.69863     1.45538
H      0.32308     0.93158     0.62503
O     -2.27091    -0.14051     1.52916
H     -1.90689    -1.05037     1.49834
O     -1.71767     0.35739     2.74953
H     -0.80215     0.54430     2.48709
