 24
-909.9805559741211
O     -2.51250    -1.86994     1.00198
H     -2.71554    -1.38190     0.18144
O     -1.38981    -2.64021     0.52904
H     -0.67575    -2.13717     0.96656
O     -1.35079    -1.68115    -1.92030
H     -1.27638    -2.27459    -1.14701
O     -2.33637    -0.76781    -1.39747
H     -1.76698     0.01745    -1.28752
O      3.32358     2.26831    -1.39101
H      4.26561     2.12375    -1.51872
O      2.98161     1.12121    -0.62094
H      2.29830     0.70710    -1.18262
O      0.73247    -0.04532    -1.57391
H      0.19405    -0.77892    -1.92320
O     -0.31895     0.90481    -1.31080
H      0.02680     1.37688    -0.52751
O     -0.00332    -0.87257     1.89594
H      0.72056    -0.22472     1.80395
O     -1.07869     0.03335     2.24482
H     -1.82703    -0.56581     2.08634
O      0.33741     2.09952     1.02492
H     -0.37802     1.74924     1.57606
O      1.43253     1.34810     1.57891
H      2.08474     1.41524     0.85643
