 24
-909.9779227397788
O     -1.94027    -2.15332    -0.50308
H     -2.65515    -1.50008    -0.37998
O     -1.73294    -2.61663     0.82589
H     -1.07177    -1.98731     1.14910
O      0.25855    -0.89976    -1.32278
H     -0.51976    -1.42894    -1.03995
O     -0.38296     0.31627    -1.73425
H      0.29116     0.97368    -1.50598
O      3.08929    -0.97258    -0.20161
H      2.21991    -1.05232    -0.62059
O      2.79819    -0.11844     0.89821
H      2.93273     0.76630     0.50817
O     -3.46739     0.04044    -0.25415
H     -4.11360     0.37446    -0.88319
O     -2.46390     1.05071    -0.28640
H     -1.80911     0.68062    -0.91978
O     -0.10904     0.98589     1.50764
H     -1.01635     0.94861     1.16975
O      0.23440    -0.40687     1.54991
H      1.19590    -0.36321     1.35123
O      1.15648     2.41192    -0.31884
H      0.82579     1.91921     0.46530
O      2.56987     2.33919    -0.15763
H      2.76995     3.17675     0.27057
