 32
-1213.300004231021
O      1.55420    -2.05239     0.36379
H      2.24792    -1.56734     0.85263
O      0.42378    -1.96759     1.23841
H      0.43209    -1.03108     1.50910
O      1.11806    -2.96731    -2.42947
H      1.34368    -2.73939    -1.51521
O      0.86652    -1.67615    -2.98086
H     -0.05844    -1.52497    -2.73578
O     -1.15732    -1.26084    -0.97681
H     -0.93434    -1.87574    -0.25472
O     -2.49739    -0.85121    -0.68405
H     -2.47677     0.01819    -1.10266
O     -1.55690     1.86893    -0.76601
H     -0.89587     2.22869    -1.37411
O     -2.50244     2.93317    -0.61257
H     -2.91808     2.61551     0.20383
O      2.27758     0.06238    -1.55991
H      1.91797    -0.59850    -2.20180
O      1.10050     0.80552    -1.23714
H      0.52379     0.09201    -0.91372
O      3.44383    -0.52355     1.47338
H      4.40195    -0.58770     1.41306
O      3.16956     0.74778     0.89066
H      2.93397     0.49935    -0.02709
O     -0.43266     1.84791     1.68819
H     -0.78425     1.76039     0.78098
O      0.43983     0.71765     1.79355
H      1.31318     1.09482     1.59108
O     -3.15654     1.03537     2.78730
H     -2.26719     1.42116     2.80071
O     -3.48454     1.11109     1.40000
H     -3.17790     0.25817     1.05301
