 40
-1516.6347291351815
O      1.22592     1.37184     0.45355
H      1.79840     0.59831     0.24812
O      1.66497     1.71580     1.76767
H      0.88130     1.43016     2.26179
O     -0.30053    -0.16360    -1.32249
H      0.11815     0.31552    -2.08073
O     -1.60041    -0.53353    -1.77600
H     -2.12895     0.16412    -1.35547
O     -1.76230     1.82387    -0.08535
H     -1.22016     2.46916    -0.59287
O     -2.97678     2.53190     0.17066
H     -3.45025     1.82704     0.64040
O     -0.92523     1.05753     2.27900
H     -1.21308     1.53828     1.46932
O     -0.54895    -0.21772     1.76603
H     -0.31093    -0.00922     0.83828
O      1.10609     3.40167    -1.24688
H      1.18344     2.70686    -0.55067
O     -0.28640     3.71654    -1.18638
H     -0.28648     4.61153    -0.83026
O      1.23992     1.14281    -2.99501
H      1.17292     2.10382    -2.89394
O      2.45069     0.90682    -2.25312
H      2.40611    -0.04726    -2.06804
O      2.14212    -1.59533    -1.28257
H      1.17171    -1.60782    -1.28327
O      2.39804    -0.97182    -0.02372
H      2.58083    -1.73934     0.56182
O     -1.37253    -3.11085     0.20715
H     -1.51347    -2.41680    -0.45574
O     -0.03738    -2.83829     0.63057
H     -0.15491    -2.27848     1.41961
O      2.28910    -4.21061     0.93599
H      1.40989    -3.86006     0.71530
O      2.78554    -3.07388     1.66327
H      3.65487    -3.38397     1.93355
O     -3.57733    -0.03275     1.53400
H     -2.65723    -0.16805     1.82184
O     -3.75251    -1.05242     0.55020
H     -4.15740    -1.76325     1.05604
