 36
-1364.9811657145074
O      3.44416    -0.69797    -2.09170
H      4.06439    -0.62148    -2.82252
O      3.92761     0.27484    -1.16491
H      3.23723     0.96923    -1.25853
O     -3.76669     0.50302    -0.86196
H     -2.97428     0.63804    -1.42869
O     -4.21880    -0.77902    -1.29092
H     -5.10777    -0.56398    -1.58752
O      2.29175    -2.05961     0.91131
H      1.72841    -2.04754     0.10977
O      2.56547    -0.67369     1.14001
H      3.35310    -0.52761     0.58890
O      1.94623     2.11880     0.26324
H      1.87220     1.21888     0.62458
O      1.81007     1.87134    -1.13261
H      0.83727     1.97068    -1.26621
O     -1.56026    -1.99111     1.43385
H     -1.32816    -1.35644     2.12482
O     -1.53313    -1.14893     0.27757
H     -2.46658    -1.09032     0.01805
O     -2.90338     0.92845     1.91344
H     -3.48101     0.85658     1.14491
O     -1.76758     1.52272     1.29255
H     -1.05109     1.17849     1.85624
O     -0.85123     1.90507    -1.19524
H     -1.22775     1.72605    -0.30601
O     -1.36349     0.82597    -1.97948
H     -0.59363     0.21703    -1.99697
O      0.40405    -0.66981     3.21029
H      1.04731    -1.04177     2.58460
O      0.33098     0.67511     2.75576
H      0.79069     1.17328     3.44053
O      0.77522    -0.76980    -1.96797
H      1.75404    -0.74569    -2.00312
O      0.54628    -1.93922    -1.17606
H     -0.27219    -1.68417    -0.69491
