 40
-1516.6424971654662
O     -2.67907     0.14653    -1.72873
H     -2.15372    -0.65770    -1.89252
O     -1.83933     0.73858    -0.74024
H     -1.44864     1.50078    -1.22204
O     -0.82201    -1.44974     1.11487
H     -1.36409    -0.75547     1.54301
O      0.11432    -1.78754     2.13632
H      0.58372    -2.53646     1.71193
O      0.22964     3.49866    -1.19473
H      0.04939     3.14798    -0.29321
O     -0.85170     2.92185    -1.93322
H     -1.38203     3.69040    -2.17059
O      1.04876     0.87641    -1.23879
H      1.20099     0.90972    -0.26396
O      2.16995     1.56770    -1.76233
H      1.75482     2.43677    -1.87175
O     -2.55436     0.22191     2.33236
H     -3.40849    -0.12194     2.60788
O     -2.92667     1.37231     1.57493
H     -2.58599     1.11510     0.68367
O      1.35835     0.50577     2.51765
H      0.86370    -0.34517     2.45262
O      1.95412     0.57666     1.22627
H      2.35125    -0.30254     1.10144
O     -0.11299     2.40850     1.23359
H      0.39363     1.90645     1.91003
O     -0.94603     3.27540     2.00860
H     -1.73455     2.71380     2.05023
O      0.26646    -1.29704    -2.46209
H      0.31658    -0.38848    -2.08791
O     -0.88158    -1.84910    -1.84247
H     -0.65219    -1.85223    -0.89888
O      1.32223    -3.76952     0.75103
H      1.85452    -3.37166     0.02560
O      0.30830    -4.45249     0.01702
H      0.54772    -5.36902     0.18484
O      2.89546    -1.21891    -0.63175
H      2.72269    -0.51042    -1.27129
O      2.40620    -2.38741    -1.29709
H      1.62246    -2.06091    -1.80374
