 28
-1061.6483855098043
O      1.12585    -0.26151    -2.95421
H      1.27785     0.37924    -3.65709
O      2.12160     0.07831    -1.98977
H      1.64176     0.74993    -1.45478
O      0.35372    -1.10474     2.81011
H     -0.40466    -1.37624     2.25616
O      1.01562    -0.22912     1.89100
H      1.39752    -0.85377     1.23939
O     -0.03645     2.18805     2.12927
H      0.37630     1.30118     2.22790
O     -1.41259     1.84472     2.24453
H      0.43520     2.16108     0.33126
O     -1.10983    -0.88784    -1.61424
H     -0.29800    -0.64099    -2.09633
O     -1.88950     0.30642    -1.71263
H     -2.28334     0.28476    -0.81830
O     -2.28322    -0.22533     0.82385
H     -1.81003     0.40729     1.39565
O     -1.52064    -1.42852     0.93819
H     -1.17875    -1.50376     0.02634
O     -0.19236     2.42112    -1.44507
H     -0.80780     1.67862    -1.60397
O      0.72851     1.81563    -0.53148
H     -1.63660     2.17389     3.12082
O      2.05064    -1.84068    -0.02798
H      2.29117    -1.29634    -0.79842
O      1.03462    -2.66158    -0.59741
H      1.35110    -3.53663    -0.35616
