 24
-909.9748138224974
O     -2.73855     0.02506    -1.64407
H     -3.65248     0.03670    -1.94844
O     -2.73660     1.11164    -0.70821
H     -2.53628     0.61379     0.10280
O      0.91889    -2.14166    -0.39757
H     -0.05140    -2.23214    -0.33864
O      1.00815    -0.98958    -1.24785
H      1.90734    -0.68894    -1.04046
O      0.10682     1.20886    -0.07439
H      0.31470     0.44349    -0.65718
O     -0.17346     2.22538    -1.03301
H     -1.14114     2.20588    -1.02488
O     -1.88944    -0.91258     0.95025
H     -1.07555    -1.04860     1.47857
O     -1.72906    -1.90642    -0.07490
H     -2.06436    -1.39572    -0.83062
O      1.05197     0.14886     2.23278
H      0.55716     0.60744     1.52726
O      0.45778    -1.15281     2.22073
H      1.00079    -1.62705     1.57136
O      2.99387     2.04351    -0.27515
H      2.07842     2.18061    -0.55208
O      3.01364     0.63507    -0.00395
H      2.75704     0.59402     0.92872
