 16
-606.6393411068312
O     -1.43570     0.55883     0.59699
H     -1.26962    -0.09888     1.28803
O     -0.42368     1.53226     0.92014
H      0.04693     1.55929     0.06219
O      1.34089    -0.54160     1.84615
H      1.05247     0.38332     1.80414
O      0.18933    -1.13212     2.46914
H      0.56810    -1.49733     3.27452
O     -0.61769     1.42425    -2.39954
H     -1.28728     1.71003    -1.76721
O      0.53326     1.30726    -1.55909
H      0.69541     0.34199    -1.58888
O     -0.53097    -1.80766    -1.05617
H     -1.05181    -1.00933    -0.88373
O      0.80611    -1.29715    -1.00561
H      1.00698    -1.30220    -0.05616
