 32
-1213.2982777121576
O      1.59023    -1.27987     0.33618
H      2.55604    -1.09964     0.33623
O      1.42080    -2.19117     1.43035
H      0.93018    -1.61782     2.03673
O      0.80018    -2.62560    -1.80364
H      1.07126    -2.18649    -0.96784
O      0.00459    -1.56512    -2.36409
H     -0.26833    -1.93769    -3.20706
O     -1.53070    -0.55082    -0.32345
H     -1.05695    -1.04333    -1.01741
O     -2.36473    -1.54896     0.25904
H     -2.90263    -0.96821     0.81892
O     -2.18029     2.46116    -0.52283
H     -2.05898     1.50673    -0.63839
O     -0.95650     2.84340     0.09348
H     -0.28740     2.49889    -0.52714
O      1.68243     0.61710    -2.04365
H      1.20514    -0.19881    -2.27167
O      0.77546     1.21738    -1.11401
H      1.01488     0.76620    -0.28399
O      4.10749    -0.77628    -0.26871
H      4.96314    -0.76629     0.16908
O      3.82942     0.62640    -0.37673
H      3.19722     0.62541    -1.11786
O     -0.31323    -0.04577     2.01581
H     -0.72895    -0.25182     1.15245
O      0.60882     1.01016     1.72283
H      0.02127     1.77284     1.60120
O     -3.36723     0.47858     1.78603
H     -3.48960     0.54392     2.73997
O     -4.33350     1.39685     1.27162
H     -3.74227     2.06493     0.89098
