 36
-1364.979312998548
O     -2.57658     1.58550    -0.70549
H     -2.47262     2.27929    -0.03830
O     -1.42992     1.84398    -1.53694
H     -1.55581     1.19840    -2.25498
O     -1.10261    -0.34565     0.64143
H     -1.64035    -0.34843    -0.17798
O     -2.03757    -0.60411     1.68294
H     -2.29127     0.30177     1.91425
O     -1.24065     3.00457     1.58731
H     -0.54045     2.40562     1.29176
O     -1.96541     2.21687     2.53129
H     -1.25406     1.86349     3.10317
O     -0.81094    -0.27686    -3.22717
H      0.14946    -0.27835    -3.06056
O     -1.28607    -1.03176    -2.10897
H     -0.75758    -1.84817    -2.15206
O      2.75677    -1.28648    -1.72428
H      2.42492    -2.16626    -1.95076
O      1.76059    -0.46246    -2.32187
H      1.73845     0.31434    -1.72151
O      1.24204     1.58502     3.65015
H      1.18048     2.13232     2.85330
O      0.04297     0.82292     3.59170
H      0.30518     0.00485     3.14975
O      1.20646     1.51308     0.59835
H      1.47530     0.57728     0.72046
O      1.16018     1.63186    -0.82118
H      0.20191     1.77001    -0.97996
O      2.02363    -1.04514     0.82854
H      2.44242    -1.19207    -0.04405
O      0.94890    -1.98413     0.77612
H      0.17724    -1.39183     0.63023
O      1.28896    -3.68548    -1.24779
H      1.11802    -3.19636    -0.41464
O      0.08824    -3.42174    -1.96558
H     -0.36850    -4.26808    -1.93008
