 36
-1364.9711474878345
O     -1.34415     2.23750     1.38428
H     -1.14468     1.27824     1.27970
O     -1.94855     2.52151     0.12454
H     -2.57113     1.78312     0.01952
O     -3.57053    -0.59571    -2.31859
H     -4.22519     0.02728    -2.64906
O     -2.96697     0.16955    -1.27615
H     -2.06406     0.30789    -1.63835
O      0.18039    -3.40790     0.61274
H     -0.54358    -3.10132     1.17562
O     -0.11407    -2.60768    -0.54518
H      0.69206    -2.69700    -1.07367
O      1.48824    -0.64869    -3.37184
H      2.26713    -0.44315    -3.89757
O      2.01366    -1.54355    -2.38939
H      1.99019    -0.95958    -1.59926
O      0.78844    -1.16423     2.87514
H      0.92409    -0.20344     2.89794
O      1.87510    -1.54693     2.01238
H      1.61681    -2.45498     1.79469
O      1.59810     1.64079     2.51721
H      2.13273     1.50133     1.71227
O      1.16330     2.99260     2.31836
H      0.23249     2.85546     2.08513
O      0.10619     1.86149    -1.41247
H     -0.64140     2.18042    -0.85806
O     -0.47166     0.71098    -2.04195
H      0.27271     0.35049    -2.56678
O      1.62379    -0.16679    -0.20375
H      1.81378    -0.59417     0.66746
O      2.23586     1.11606    -0.03155
H      1.55462     1.65810    -0.46936
O     -1.08712    -0.28990     0.81945
H     -0.40286    -0.75739     0.30443
O     -2.04042    -1.29661     1.12494
H     -2.62735    -1.22885     0.35518
