 36
-1364.978429692373
O      0.88249     3.12712     2.49318
H      0.29030     2.87227     3.20514
O      1.60970     1.91179     2.30012
H      1.68814     1.88580     1.32186
O      0.20613    -2.57324    -0.14777
H     -0.23274    -3.03908    -0.87911
O     -0.48815    -3.03648     1.00463
H     -1.05148    -2.26246     1.20021
O     -1.86248    -0.75975     1.50045
H     -2.17507    -0.40589     0.64276
O     -0.92269     0.24607     1.87362
H     -0.08842    -0.26300     1.97436
O      1.88775    -0.90491    -1.44253
H      1.32111    -1.51004    -0.92806
O      1.05592    -0.58262    -2.55932
H      0.77776     0.32242    -2.30576
O     -2.65166     0.35711    -0.79822
H     -2.61919     1.30010    -0.57860
O     -1.70418     0.30498    -1.86676
H     -1.82548    -0.60212    -2.19561
O     -0.64622     3.25514     0.30748
H     -0.10752     3.46776     1.09375
O     -1.74732     2.55234     0.88214
H     -1.31700     1.76125     1.26266
O      1.97540     1.45929    -0.26639
H      2.21440     0.53977    -0.50970
O      0.93061     1.67954    -1.22229
H      0.30484     2.24685    -0.72573
O     -1.78032    -2.17693    -2.95517
H     -2.06634    -2.38235    -3.85009
O     -0.47455    -2.74601    -2.91840
H      0.07686    -1.93338    -2.92826
O      2.52314    -0.86341     1.62875
H      2.72843    -0.05851     2.11812
O      1.30586    -1.23285     2.28005
H      1.21632    -2.16007     2.01831
