 24
-909.9743242115735
O     -1.88490     0.41601    -1.04533
H     -1.36278     1.18307    -0.73757
O     -0.88456    -0.55351    -1.36331
H     -0.19377    -0.04131    -1.84514
O      1.55363    -2.36745    -0.98723
H      1.36651    -3.09252    -1.59277
O      0.47952    -2.43913    -0.05269
H     -0.11295    -1.75192    -0.42350
O      1.23209     0.75100    -2.27638
H      1.27991     1.55619    -1.73623
O      2.39546     0.04982    -1.81786
H      2.00873    -0.78436    -1.49912
O      0.48254    -0.07140     1.56042
H     -0.26848    -0.48760     2.01685
O      1.63554    -0.80136     1.98367
H      1.60992    -1.54186     1.36122
O     -2.38911     0.96166     2.18841
H     -3.26459     1.00386     2.58728
O     -2.33784    -0.38462     1.71356
H     -2.35146    -0.24383     0.75161
O      0.73145     2.11774     0.12881
H      0.73837     1.24677     0.58757
O     -0.65096     2.48446     0.20242
H     -0.89372     2.23331     1.10605
