 36
-1364.9781173600725
O      1.40321     2.33022     0.39186
H      1.79040     1.46896     0.65693
O      1.28902     3.00913     1.63699
H      0.33209     3.00681     1.77502
O     -2.40112    -1.83880    -1.00602
H     -1.90983    -1.39388    -1.70723
O     -1.40760    -1.91118     0.01313
H     -1.73503    -1.27595     0.68082
O     -1.77377    -0.00287     1.92903
H     -2.28501     0.82004     1.97416
O     -0.61402     0.51656     1.25763
H      0.13236    -0.02637     1.60852
O      1.49183    -0.92471     1.84168
H      1.80877    -1.84733     1.74069
O      2.22399    -0.21499     0.83796
H      1.96685    -0.66616     0.00884
O     -1.79945     3.49938     2.00379
H     -2.18736     4.37119     1.88011
O     -2.60532     2.68184     1.15605
H     -2.10081     2.69374     0.31275
O     -0.89016     2.62018    -0.91704
H      0.01226     2.57299    -0.51384
O     -1.16333     1.24976    -1.19963
H     -0.92158     0.82996    -0.34211
O      0.84192    -2.57557    -1.29165
H      0.04342    -2.38470    -0.75243
O      1.35148    -1.24626    -1.51687
H      0.83968    -0.98737    -2.30421
O     -0.07529     0.53876    -3.50699
H     -0.49773     0.93146    -2.71354
O     -0.51871    -0.81281    -3.35156
H     -0.65602    -1.09389    -4.26117
O      1.97458    -3.57668     1.46823
H      2.38987    -4.24526     2.01849
O      2.75059    -3.67530     0.26725
H      2.06815    -3.42374    -0.38583
