 28
-1061.6392585639044
O      0.71471    -1.33104    -0.98047
H      0.57897    -0.36980    -0.92520
O      0.73656    -1.69631     0.40316
H      1.63000    -2.09345     0.48961
O      3.43066    -1.90033     1.82494
H      3.36789    -0.97565     1.50589
O      3.24832    -2.57880     0.57647
H      3.60684    -3.45114     0.76974
O     -1.70180     0.16302     1.72334
H     -2.39167     0.77303     1.43223
O     -1.76516    -0.80863     0.66553
H     -0.13729     0.92486     1.48184
O     -3.25021    -0.62902    -2.81305
H     -2.69610    -0.90836    -3.54968
O     -2.33378     0.13776    -2.03293
H     -2.13948    -0.46487    -1.29364
O     -3.21986     2.05552     0.03580
H     -3.01443     1.56674    -0.77836
O     -2.24484     3.08972    -0.00037
H     -2.73934     3.85109    -0.32059
O     -0.13244     1.46143    -0.31429
H     -0.79440     2.16157    -0.18453
O      0.51560     1.44664     0.97190
H     -0.85807    -1.17331     0.68996
O      3.05500     0.51281     0.73410
H      2.13603     0.85227     0.71428
O      3.41468     0.45321    -0.64564
H      3.42006    -0.50090    -0.79504
