 24
-909.9787327678495
O     -1.67397    -1.76094     0.01420
H     -1.83883    -1.43013    -0.88827
O     -0.57474    -0.95782     0.43748
H     -0.93377    -0.04582     0.37924
O     -1.34496     1.47055    -0.34126
H     -1.68104     1.40112    -1.24632
O     -0.05076     2.04250    -0.57711
H      0.34533     1.94102     0.31614
O      0.81024    -0.85659    -1.84131
H      0.50461    -1.04041    -0.92752
O      1.67712     0.26869    -1.67949
H      1.04250     0.98885    -1.51760
O     -2.32258    -0.90276    -2.46972
H     -2.38921    -1.46487    -3.24921
O     -1.43487     0.12469    -2.90595
H     -0.56610    -0.25644    -2.64410
O     -0.09460    -0.80386     3.29475
H     -0.29732    -1.18892     2.43222
O      1.33348    -0.86217     3.24297
H      1.55756    -1.07126     4.15411
O      2.44656     1.38504     1.02789
H      2.37819     0.76862     0.28401
O      1.15998     1.25970     1.62708
H      1.29414     0.56254     2.30499
