 28
-1061.6455054671633
O      0.56875    -0.79468    -3.51050
H      0.92867    -0.62706    -4.38579
O      1.56163    -0.19849    -2.68642
H      1.08082     0.56546    -2.29159
O      0.86438    -0.10750     1.71652
H      0.18099     0.57022     1.94473
O      1.84871     0.70770     1.07039
H      2.49042     0.03551     0.77782
O     -1.19197     1.47033     2.20962
H     -2.05338     1.11593     1.91258
O     -1.09329     2.70601     1.49067
H      0.96205     1.39045    -0.20109
O     -0.72191    -1.87306     0.45720
H     -0.06462    -1.26693     0.86160
O     -0.84962    -1.32661    -0.85842
H     -0.26629    -1.88819    -1.38814
O     -3.01014    -0.82506     1.82636
H     -2.36614    -1.29607     1.27864
O     -3.25812     0.30373     0.99031
H     -4.21388     0.39974     1.05679
O     -0.84940     1.33623    -0.78456
H     -0.87775     0.35573    -0.78853
O      0.52276     1.62473    -1.05076
H     -1.02125     2.36650     0.57578
O      2.15828    -1.68217    -0.53619
H      2.01082    -1.14954    -1.34027
O      3.41128    -1.13225    -0.11747
H      3.83548    -1.90757     0.25904
