 20
-758.3015417154842
O     -2.51205     0.02268     1.50660
H     -2.15582     0.05843     0.60052
O     -1.69262     1.01705     2.13668
H     -2.24099     1.26241     2.88768
O      1.40088     1.08400    -0.41134
H      0.80936     0.43925     0.01721
O      2.67868     0.71771     0.11736
H      2.89921     1.51898     0.60133
O      1.45386    -0.49919     2.52938
H      2.10725    -0.39884     1.82470
O      0.28548    -0.73100     1.72289
H     -0.35291    -0.07858     2.07280
O     -0.22198    -0.16127    -3.28346
H      0.19459    -0.93031    -3.68850
O      0.81500     0.81936    -3.31874
H      1.05885     0.87035    -2.38356
O     -1.16583    -0.34006    -0.79641
H     -0.91114    -0.25161    -1.73987
O     -1.14239    -1.76751    -0.64154
H     -0.71744    -1.81403     0.22923
