 36
-1364.9791467079656
O      2.84051     1.04821     0.08992
H      2.21801     1.34668     0.78104
O      3.37674    -0.14064     0.66431
H      3.27749    -0.74433    -0.10028
O     -0.82502    -1.81669    -0.99688
H     -0.01627    -2.35250    -1.11289
O     -0.25855    -0.82279    -0.13941
H     -0.64561    -0.00626    -0.51425
O     -2.99758     1.05561     0.70636
H     -3.39875     0.19016     0.47949
O     -2.20306     0.67494     1.84309
H     -1.62533     1.45827     1.92732
O     -1.24165     1.41030    -1.25850
H     -1.96016     1.44725    -0.58479
O     -0.53375     2.62976    -0.99713
H      0.28374     2.42763    -1.49239
O     -3.35650    -1.45771    -0.09784
H     -2.46190    -1.71235    -0.40929
O     -4.08788    -1.36047    -1.31991
H     -4.81948    -1.95754    -1.13603
O      0.99608     0.12298    -2.59659
H      0.04940     0.30719    -2.61009
O      1.48099     1.39910    -2.17360
H      2.08491     1.16880    -1.43949
O      0.96615     1.77325     1.86031
H      0.68928     0.95064     2.31522
O     -0.25375     2.48704     1.68898
H     -0.26796     2.65555     0.72397
O      2.49534    -1.69466    -1.31633
H      1.85502    -1.14445    -1.81689
O      1.66420    -2.70535    -0.75153
H      1.69987    -2.50556     0.19675
O      0.50291    -0.76684     2.56850
H     -0.18680    -0.97721     1.91768
O      1.57548    -1.58601     2.09104
H      2.23844    -0.92949     1.80787
