 40
-1516.6403876453983
O      1.50542     4.14361    -1.70493
H      0.73862     3.57332    -1.85341
O      1.25976     4.56244    -0.35260
H      2.04543     4.22332     0.10404
O      1.32218    -1.53580     0.78412
H      1.29340    -0.75326     0.18388
O      1.31308    -0.94063     2.08156
H      0.51861    -0.36780     2.02321
O      1.13086     0.56160    -0.77719
H      0.43251     1.25508    -0.72624
O      1.17741     0.28255    -2.17212
H      0.82596    -0.62073    -2.16414
O     -3.14269     1.12424    -0.68229
H     -3.65511     0.94021     0.11487
O     -2.49025    -0.10773    -0.97540
H     -1.87937    -0.21751    -0.22458
O     -0.85592     3.14027     0.50650
H     -0.12227     3.77328     0.34548
O     -0.81964     2.40682    -0.72952
H     -1.73606     2.05185    -0.79568
O      1.90478     1.97881     1.62551
H      2.17821     1.08535     1.88862
O      2.90781     2.39802     0.69859
H      2.64448     1.94829    -0.11787
O     -1.76201     0.37807     2.31999
H     -1.86857    -0.55838     2.06826
O     -0.68162     0.66028     1.42107
H     -0.69899     1.63937     1.32299
O     -2.26159    -3.02590     0.64197
H     -2.09951    -3.03729    -0.31435
O     -1.48426    -1.90266     1.03551
H     -0.58195    -2.22855     1.19495
O      1.83280    -4.31035    -0.04079
H      1.91953    -3.42941     0.35370
O      0.40803    -4.37306    -0.12075
H      0.19445    -5.23245     0.26133
O     -0.01058    -2.45146    -1.88413
H      0.12802    -3.21224    -1.27959
O     -1.39644    -2.61229    -2.20954
H     -1.73758    -1.73505    -1.98623
