 32
-1213.3084497714003
O      2.84859     0.01293     1.98553
H      2.94436    -0.10607     1.02985
O      2.55835     1.41062     2.08948
H      1.82337     1.40718     2.72203
O     -1.85687    -2.06215    -1.87118
H     -2.38833    -1.53973    -1.25657
O     -0.92006    -2.66729    -0.96729
H     -0.07286    -2.46714    -1.41268
O      0.19120     1.49072    -0.69653
H     -0.43926     0.85081    -0.29505
O      0.39472     2.45228     0.32926
H      1.27547     2.20680     0.65662
O     -0.18231     1.29899     3.20810
H     -0.23056     0.34115     3.06010
O     -1.22102     1.76109     2.33482
H     -0.68483     2.19790     1.64637
O     -1.12026     0.35125    -3.24396
H     -1.23129    -0.60168    -3.12061
O      0.30281     0.49108    -3.18210
H      0.39945     1.08743    -2.41902
O      1.37863    -1.64592    -1.95281
H      1.12143    -0.92390    -2.56226
O      2.02635    -0.91045    -0.91334
H      1.34925    -0.98274    -0.21986
O      0.35991    -1.24291     1.09729
H     -0.30162    -1.91834     0.86532
O      0.41119    -1.27416     2.52102
H      1.36412    -1.15574     2.63048
O     -1.96548     0.13341     0.07419
H     -2.18768     0.66284     0.86160
O     -2.94468     0.52027    -0.88833
H     -2.36996     0.79871    -1.61734
