 40
-1516.6432769856124
O      3.41065    -0.05863    -1.34443
H      4.34361    -0.21428    -1.50933
O      2.87293    -1.37112    -1.44483
H      2.12541    -1.21715    -2.06529
O     -0.98400    -0.44405     1.32430
H     -1.15766     0.52371     1.45206
O     -2.28695    -1.01534     1.25843
H     -2.33200    -1.25971     0.32293
O      0.02507     2.85922     1.31749
H      0.65953     2.15960     1.57137
O     -1.22647     2.21866     1.58581
H     -1.79552     2.60137     0.88213
O      1.48583     0.35273     0.42555
H      2.33762     0.29274    -0.05266
O      1.82255     0.90612     1.70336
H      1.55674     0.16578     2.28351
O     -2.98856     1.89128    -1.16764
H     -2.04879     1.60727    -1.23220
O     -2.87251     3.04705    -0.33978
H     -2.80483     3.76929    -0.97391
O     -0.39609     1.34361    -1.12029
H      0.18958     0.89019    -0.46738
O      0.33159     2.55261    -1.33324
H      0.29669     2.91392    -0.42500
O     -3.36060    -1.03808    -1.50906
H     -3.65297    -0.15267    -1.25334
O     -2.54113    -0.69847    -2.63489
H     -1.87340    -1.40468    -2.60743
O      0.34996    -2.42727     0.25593
H     -0.07002    -1.72227     0.80268
O      1.68287    -2.42657     0.78656
H      2.19241    -2.12228     0.01394
O     -0.23973    -2.01087    -2.32785
H      0.01725    -2.16284    -1.39092
O      0.61495    -0.95581    -2.76479
H      0.11011    -0.15180    -2.54225
O      2.28827    -1.40122     4.18596
H      1.78937    -1.68915     4.95567
O      1.24766    -1.30292     3.21882
H      1.51759    -1.96630     2.55649
