 32
-1213.3202683462805
O      0.10812     2.95186     2.09303
H      0.51876     3.35050     2.86499
O     -0.26785     1.68417     2.63471
H     -1.19988     1.62940     2.34014
O     -0.39776    -1.95402    -1.30159
H      0.53487    -2.23782    -1.37417
O     -0.59251    -1.24941    -2.52596
H     -1.34903    -0.66527    -2.30301
O     -1.75145     1.72030    -1.27612
H     -0.80980     1.48616    -1.40326
O     -2.42919     0.55381    -1.75486
H     -2.83674     0.26855    -0.91089
O     -0.63142    -0.99112     1.16886
H     -0.52475    -1.29738     0.24565
O     -0.11099    -2.10688     1.88543
H      0.75099    -1.72746     2.11647
O      0.87939     1.23363    -1.40351
H      1.22058     0.96899    -0.52188
O      1.54088     0.31590    -2.27782
H      0.77237    -0.21724    -2.57211
O      2.93024    -1.42439    -0.78806
H      2.55798    -0.74188    -1.38943
O      2.22741    -2.57766    -1.22953
H      2.92224    -3.10027    -1.64312
O      2.08192    -0.59138     1.65489
H      2.51070    -0.98895     0.88036
O      1.65678     0.65009     1.08899
H      1.01096     0.96698     1.76307
O     -2.91084     0.27229     0.82934
H     -2.11305    -0.22100     1.11820
O     -2.58354     1.60533     1.23185
H     -2.31354     1.98282     0.37151
