 32
-1213.3096667244702
O      1.85028     0.18249     1.89696
H      1.40143    -0.51050     1.38931
O      1.68304     1.31329     1.04945
H      0.96999     1.82201     1.48650
O      0.60323    -1.70345    -0.27092
H      0.14567    -1.21772    -0.97715
O      1.75209    -2.23923    -0.92892
H      2.24061    -1.40825    -1.10469
O      0.16462    -1.05644    -3.14180
H     -0.23181    -1.92646    -3.26059
O     -0.88657    -0.15970    -3.51644
H     -1.11367     0.19815    -2.63384
O     -1.12812     0.59163    -0.96865
H     -1.16255     0.31880    -0.01428
O     -0.50999     1.88913    -0.92753
H      0.33654     1.69381    -1.38502
O      1.62665     0.92117    -2.18367
H      1.24274     0.13616    -2.62198
O      2.52000     0.31213    -1.23956
H      2.23880     0.74224    -0.40019
O     -2.58553     0.28993     1.68092
H     -2.30988     1.20064     1.85579
O     -1.29493    -0.28489     1.47654
H     -1.36837    -1.17246     1.89293
O     -1.11250    -3.24270     1.04685
H     -0.37928    -2.82839     0.55235
O     -0.81579    -2.74588     2.36152
H     -1.15499    -3.45320     2.91749
O     -0.21309     2.87257     2.16488
H     -0.10070     3.79535     2.41052
O     -1.41579     2.89618     1.40169
H     -1.07196     2.65006     0.51687
