 32
-1213.3109252409977
O      1.71087    -2.37777     0.97914
H      2.13725    -1.67698     0.45857
O      2.15425    -2.11381     2.30870
H      1.43977    -1.55754     2.65251
O     -2.22103    -0.08023    -0.12322
H     -1.66099    -0.70948     0.38584
O     -2.78142    -0.93441    -1.12841
H     -2.22363    -0.69540    -1.89227
O     -0.86529    -0.37707    -2.92224
H     -0.62356     0.52987    -2.63102
O      0.28529    -1.09348    -2.46669
H     -0.11085    -1.78892    -1.90628
O     -1.32140     2.22808    -1.01923
H     -1.71870     1.36217    -0.76438
O     -0.12838     1.82145    -1.68622
H      0.49551     1.61180    -0.96884
O      0.77443     3.29112     1.31446
H      0.86367     4.13539     1.76751
O     -0.62503     3.04484     1.47738
H     -0.91277     2.99471     0.54474
O     -0.87172    -2.26105     0.53176
H      0.05789    -2.40923     0.82401
O     -0.85071    -2.85925    -0.77868
H     -1.78634    -2.73271    -0.99001
O      1.92555     0.91122    -0.22419
H      2.74237     1.41844    -0.24435
O      2.33301    -0.32214    -0.79444
H      1.66963    -0.43750    -1.50103
O     -0.55866     0.22075     2.27083
H     -0.92155     1.11657     2.17842
O      0.80462     0.45812     2.61707
H      1.20300     0.64024     1.75444
