 36
-1364.9766682249258
O      1.37518     1.85090     3.03074
H      0.48393     2.17124     2.84840
O      1.78034     1.48440     1.71047
H      1.60163     0.51720     1.68028
O      0.86531    -1.04258     1.65344
H      1.16940    -1.81275     1.13429
O     -0.52320    -1.01094     1.31252
H     -0.77764    -0.08234     1.48743
O      0.71273     2.75666    -1.20542
H     -0.06793     2.20112    -1.41361
O      0.44243     3.13201     0.14248
H      1.06051     2.54783     0.63758
O      1.63086    -3.03687    -0.06261
H      0.87082    -3.18064    -0.67746
O      2.62949    -2.53512    -0.94999
H      3.34406    -3.16407    -0.81692
O     -1.40614     1.45382     1.92114
H     -1.97939     1.62632     2.67335
O     -1.96355     2.29109     0.91372
H     -1.14741     2.74159     0.59772
O     -3.01323    -0.30443    -0.29054
H     -3.76691     0.02831     0.20712
O     -3.58776    -1.32803    -1.10910
H     -2.96357    -2.04730    -0.90521
O      2.79865     1.03951    -1.10909
H      2.14671     1.74946    -1.25742
O      1.89284     0.02532    -0.67671
H      2.39908    -0.79953    -0.79910
O     -1.14950     0.96246    -1.72248
H     -1.87923     0.55943    -1.20550
O     -0.35599    -0.18040    -2.05878
H      0.45486    -0.02638    -1.51868
O     -0.54829    -2.80458    -1.52513
H     -0.60280    -1.87867    -1.84800
O     -1.40510    -2.80833    -0.38730
H     -1.02025    -2.11831     0.19698
