 32
-1213.3158502351866
O     -1.59324    -2.72906     0.21671
H     -1.51840    -1.97555    -0.39764
O     -2.54634    -2.18106     1.14653
H     -1.94250    -2.03071     1.90034
O      2.16596    -1.35956     0.04566
H      1.80037    -1.88718     0.78314
O      0.94978    -1.16665    -0.68935
H      1.05801    -0.26617    -1.04429
O     -2.43976     0.32925     0.22730
H     -2.84130    -0.43408     0.67772
O     -1.92803    -0.36253    -0.92979
H     -2.18561     0.27465    -1.62999
O     -1.21260     1.45830    -3.23174
H     -0.58076     1.82332    -2.58007
O     -2.44494     1.66451    -2.53022
H     -3.04802     1.85969    -3.25295
O      3.43070     1.75705     0.20283
H      4.38991     1.69716     0.17844
O      3.09031     0.80335     1.19757
H      2.85456     0.00728     0.65765
O      0.52912     2.27593    -1.35354
H      0.27685     2.08735    -0.42344
O      1.52965     1.28897    -1.59965
H      2.26383     1.60937    -1.04120
O     -0.22149     1.60100     1.11689
H     -1.01879     1.06369     0.91268
O      0.48283     0.80074     2.06463
H      1.41219     0.98362     1.83946
O      0.54887    -2.56901     1.77641
H     -0.07543    -2.90966     1.10601
O     -0.33413    -1.68825     2.47873
H     -0.00737    -0.80608     2.21651
