 32
-1213.3183949772144
O      0.52630     0.84597     0.88412
H      0.61494     1.07756    -0.06071
O      1.79022     0.21184     1.13265
H      1.70919    -0.62319     0.62640
O     -2.02146    -0.95835    -0.70318
H     -1.18716    -1.46528    -0.64799
O     -1.72776    -0.00199    -1.71878
H     -2.09076     0.82655    -1.33268
O      3.70442     1.35614    -1.25715
H      4.51223     1.80832    -1.52110
O      3.38195     2.03625    -0.03939
H      2.91875     1.32469     0.44622
O     -1.18569     3.09810    -0.51398
H     -0.62792     2.66019    -1.16789
O     -2.35024     2.27742    -0.54929
H     -2.46272     2.03408     0.38165
O      1.10494     1.30184    -1.66240
H      2.08539     1.37852    -1.70475
O      0.85289     0.05343    -2.31136
H     -0.12031     0.00226    -2.19851
O      1.53607    -1.88978    -0.56242
H      1.40551    -1.34397    -1.35953
O      0.20372    -2.37533    -0.38043
H      0.21150    -2.70026     0.54759
O     -0.18339    -3.03196     2.16120
H     -0.26295    -3.81836     2.70844
O     -1.55334    -2.73904     1.87304
H     -1.59700    -1.80075     2.16798
O     -2.68059     0.30833     1.52807
H     -2.61350    -0.26440     0.74138
O     -1.53675    -0.12502     2.25763
H     -0.78854     0.26720     1.75708
