 36
-1364.977276609587
O      0.19659     3.30491    -0.36899
H      0.02208     2.52454    -0.92931
O      0.99022     2.73468     0.66617
H      0.36148     2.60110     1.39117
O     -1.73032    -2.00698     0.42320
H     -1.39320    -2.91390     0.37827
O     -2.18587    -1.82277    -0.92697
H     -2.13176    -0.84616    -1.01232
O     -0.29021     0.63986     3.24581
H      0.02394     0.30090     2.37677
O      0.18412     1.98832     3.24978
H      1.02529     1.92165     3.71079
O      0.34525    -0.45376     0.87913
H     -0.43032    -1.03171     0.65815
O      1.45254    -1.35321     0.74255
H      2.03963    -0.77172     0.22800
O     -2.35393     2.21646     0.98284
H     -3.02040     2.91478     0.95774
O     -2.87513     1.30952     1.95320
H     -2.19521     1.37188     2.63899
O     -1.87694     0.79632    -1.26290
H     -1.91543     1.32166    -0.43925
O     -0.54778     1.04231    -1.72696
H     -0.22745     0.13871    -1.95324
O      2.60531     0.86572    -0.23645
H      1.98935     1.55921     0.10589
O      2.55553     1.11703    -1.63455
H      3.44014     1.45536    -1.79724
O      1.87281    -1.31065    -2.62272
H      2.05764    -0.41108    -2.30731
O      0.45240    -1.35708    -2.43839
H      0.34122    -2.23891    -2.03471
O      0.44305    -3.81724    -1.33098
H      1.05347    -4.52922    -1.55166
O      0.48306    -3.79350     0.09452
H      0.93031    -2.93846     0.26045
