 24
-909.975592613663
O     -3.26362     0.17099     0.91320
H     -2.96575    -0.24956     0.08295
O     -2.53173     1.40114     0.87003
H     -3.24216     2.04195     0.75503
O      1.13188    -1.05734    -1.34375
H      0.44861    -1.70748    -1.08592
O      0.27869     0.01335    -1.78021
H      0.39574     0.63886    -1.02501
O      3.19071     0.61490    -1.99577
H      2.55783    -0.10018    -1.82027
O      3.74357     0.76534    -0.68115
H      4.44710     1.39819    -0.85053
O     -1.16128    -2.10777    -0.55379
H     -1.17655    -1.84630     0.38370
O     -2.02075    -1.11856    -1.13771
H     -1.34470    -0.54893    -1.55989
O     -1.21509    -1.37203     2.04362
H     -2.02048    -0.83015     2.09412
O     -0.22176    -0.38684     2.30436
H      0.24763    -0.75278     3.06083
O      1.75323     1.69529     0.95154
H      2.33901     1.30341     0.28133
O      0.46566     1.37785     0.42130
H      0.14245     0.74869     1.09085
