 24
-909.9754134240762
O     -1.06236    -1.23582     2.09550
H     -0.65524    -0.38971     2.34053
O     -2.42610    -0.89463     1.88802
H     -2.48910    -0.95341     0.92514
O      1.19370     0.54650    -2.13790
H      0.78538     1.28093    -1.62025
O      2.55858     0.96380    -2.19760
H      2.69811     0.97486    -3.14850
O      1.35963    -1.14741    -0.05933
H      1.35569    -0.62326    -0.88792
O      0.12524    -1.86897    -0.17842
H     -0.28026    -1.70184     0.70112
O     -2.70892    -1.02284    -1.15882
H     -3.14183    -1.73432    -1.64259
O     -1.55017    -0.76761    -1.94754
H     -0.86124    -1.23199    -1.42473
O      0.10090     2.09874    -0.30804
H      0.71420     2.03842     0.44623
O     -0.93177     1.19382     0.12093
H     -1.32427     0.92349    -0.72357
O      1.93896     1.64921     1.64192
H      2.15297     2.06369     2.48222
O      1.27904     0.46071     2.08700
H      1.44123    -0.12678     1.32312
