 40
-1516.636899732586
O      1.57610     2.44433    -0.35975
H      1.85796     1.67893     0.18898
O      1.42413     3.47299     0.60817
H      0.72965     3.09605     1.17887
O      1.31526    -0.11694    -1.98406
H      0.66170     0.55806    -2.23623
O      2.17861    -0.19063    -3.11120
H      2.97706     0.18894    -2.71346
O     -3.21295    -0.73124     1.21788
H     -3.38287    -1.68341     1.28954
O     -3.72502    -0.48265    -0.09989
H     -3.38097     0.40562    -0.25027
O     -1.37499     2.08258     3.01558
H     -1.31751     1.18743     3.36992
O     -0.42554     2.00596     1.96638
H     -0.94819     1.65993     1.20506
O     -1.31238     0.96899    -0.26839
H     -1.11925     0.05885    -0.60865
O     -0.83119     1.80243    -1.32380
H     -0.01790     2.17856    -0.91829
O      4.06846     0.69009    -0.93674
H      4.46144     0.40238    -0.10205
O      4.54586     2.03092    -1.08907
H      3.72416     2.52602    -0.96066
O      1.75104    -0.92914     0.53670
H      1.61341    -0.65823    -0.39594
O      1.87894     0.33184     1.19827
H      1.07009     0.35338     1.74625
O     -0.67602    -0.81928     2.20409
H     -1.55001    -0.71593     1.78157
O     -0.29433    -2.13235     1.75967
H      0.49999    -1.90458     1.23492
O     -2.78444    -3.42512     0.99815
H     -1.87821    -3.33150     1.32327
O     -2.53988    -3.44819    -0.41347
H     -3.43037    -3.35131    -0.77003
O     -0.82240    -1.50147    -1.17416
H     -1.39664    -2.24269    -0.88520
O     -0.82037    -1.68669    -2.59657
H      0.13161    -1.74962    -2.73074
