 36
-1364.9811316846556
O      0.67025     2.57327    -0.69734
H      1.47394     2.45668    -1.23890
O      1.21368     2.61109     0.62184
H      1.55321     1.69673     0.73932
O     -1.40554    -2.49971    -1.41557
H     -0.50706    -2.79058    -1.15694
O     -1.92587    -2.21186    -0.11010
H     -1.96832    -1.23490    -0.10746
O     -0.47084    -0.54054     2.09859
H     -0.80615     0.26374     2.53615
O      0.17546    -1.22903     3.17256
H      0.27616    -2.08806     2.73329
O      1.85389     0.03092     1.00897
H      1.01204    -0.35117     1.35669
O      2.42895    -1.01763     0.22998
H      2.62861    -0.55879    -0.59964
O     -1.26637     2.47399     1.56919
H     -0.35420     2.74726     1.31638
O     -1.06973     1.96548     2.88965
H     -1.71176     2.47784     3.38864
O     -2.00498     0.48774    -0.14271
H     -1.84807     1.24470     0.45596
O     -2.96665     1.01883    -1.06058
H     -2.58661     0.66260    -1.87988
O      2.61580     0.42899    -2.35824
H      1.63774     0.34650    -2.36558
O      2.78682     1.83752    -2.22069
H      2.99998     2.10960    -3.11917
O      0.02212     0.09538    -1.97868
H     -0.27482     0.79255    -1.36137
O     -1.15335    -0.18109    -2.73716
H     -1.33660    -1.08247    -2.40152
O      0.72253    -3.06198     0.01651
H      1.39032    -2.37079     0.18990
O      0.06898    -3.17668     1.28102
H     -0.83013    -2.90966     1.00100
