 36
-1364.9695051248684
O      1.32171     1.49998    -0.90181
H      1.07396     0.75003    -1.47983
O      1.88366     0.83564     0.23022
H      1.48923     1.33069     0.98031
O      0.30153    -0.37334    -2.49812
H     -0.65756    -0.39519    -2.30876
O      0.57753    -1.67360    -3.00894
H      1.08672    -2.05204    -2.27503
O     -0.38618    -0.91940     1.16766
H     -0.47676    -0.46231     2.02120
O     -1.03785    -2.17384     1.37436
H     -0.29825    -2.73933     1.09791
O      2.75604    -0.33862     3.50807
H      3.63906    -0.23506     3.87815
O      3.01247    -1.05112     2.30307
H      2.91514    -0.36547     1.62183
O     -3.59596    -0.38722    -0.98294
H     -3.56581    -0.28387    -1.94130
O     -2.19038    -0.33349    -0.72863
H     -2.02457    -1.09708    -0.14761
O      1.19342     1.67664     2.64241
H      1.67665     1.01468     3.16792
O     -0.15447     1.27196     2.86824
H     -0.60325     1.66755     2.08692
O     -2.66972     2.01768    -3.10970
H     -2.28023     2.14010    -2.23052
O     -2.25492     0.68536    -3.41327
H     -1.67600     0.80787    -4.17557
O      1.82961    -2.07655    -0.31785
H      1.28972    -1.31487    -0.04037
O      1.48710    -3.04998     0.66528
H      1.93964    -2.70347     1.44971
O     -1.01486     2.69191    -0.43994
H     -0.09781     2.37560    -0.58074
O     -1.43953     1.85417     0.63842
H     -1.72347     1.04449     0.16197
