 24
-909.9757314892678
O     -2.59358    -1.08021     1.04202
H     -2.49915    -1.27897     0.09349
O     -1.95419    -2.20134     1.64405
H     -1.03208    -1.90352     1.66879
O     -2.28432    -1.25568    -1.63675
H     -3.04498    -1.27970    -2.22459
O     -1.61918    -0.07157    -2.06658
H     -1.75041     0.51899    -1.30550
O      3.49810     1.59205    -0.06447
H      3.10278     1.30411    -0.89994
O      3.45640     0.36252     0.65920
H      4.36527     0.26291     0.95964
O      1.05922    -0.35928    -1.63189
H      0.15601    -0.46447    -1.98129
O      1.25626     1.04976    -1.77701
H      0.67887     1.38594    -1.07078
O      0.78477    -1.13756     0.92945
H      1.00202    -0.86711     0.01355
O      1.01855     0.06742     1.67524
H      1.95455     0.25320     1.45457
O     -0.83271     1.31388     0.26381
H     -0.25817     0.87384     0.93288
O     -2.03743     1.56652     1.00087
H     -2.31658     0.65506     1.21138
