 20
-758.3044828722111
O      1.50885    -2.89182     0.38501
H      1.94965    -3.61056     0.84793
O      0.13651    -3.28587     0.48345
H     -0.21323    -2.85096    -0.31044
O      1.48136     0.13946    -0.60842
H      0.98356     0.97145    -0.76325
O      0.78755    -0.35871     0.55056
H      1.17890    -1.25607     0.61535
O      0.63504     2.23370     1.89372
H      0.67636     1.29768     1.66313
O     -0.75435     2.47028     1.64772
H     -0.92953     3.20407     2.24375
O     -1.55665    -0.69239    -0.62403
H     -0.73383    -0.54381    -0.11031
O     -1.13604    -1.80211    -1.43028
H     -1.98968    -2.13916    -1.71747
O      0.00907     2.34591    -0.92434
H     -0.36541     2.55684    -0.04575
O     -1.14787     2.06629    -1.70945
H     -1.24261     1.11282    -1.58630
