 24
-909.9686840025081
O     -1.43358    -1.46089    -0.13097
H     -1.98902    -0.83441    -0.61546
O     -1.56979    -0.95186     1.20361
H     -0.70133    -1.17396     1.56664
O      0.50089    -0.71458    -2.28486
H      0.01084    -1.21273    -1.60549
O      0.55044    -1.65074    -3.36793
H     -0.01152    -1.20734    -4.01070
O      2.84982     0.01515    -0.69326
H      2.34035    -0.27416    -1.46145
O      1.98963    -0.49555     0.32876
H      2.54914    -0.47878     1.11966
O     -2.89862     1.53373    -0.66939
H     -3.37396     2.12237    -1.26267
O     -1.89648     1.00894    -1.54695
H     -1.07840     1.34194    -1.12389
O      1.43295     0.39054     2.95978
H      0.87680     0.94764     2.37451
O      0.64038    -0.79559     3.04423
H      0.16668    -0.66335     3.86983
O      0.32047     1.53488    -0.05073
H      0.97576     0.81497     0.06391
O     -0.22822     1.66234     1.27448
H     -0.99494     1.06788     1.23498
