 36
-1364.979598687606
O      1.81051     2.28881     1.80746
H      1.98282     2.02748     0.89004
O      2.26746     1.16070     2.54003
H      1.47426     0.59252     2.62216
O     -0.90247     1.84985     0.45929
H     -0.91370     1.12458     1.12623
O     -1.96957     1.47266    -0.40402
H     -1.80957     2.05651    -1.17858
O      1.00729    -2.50913     0.75900
H      0.15892    -2.82817     0.39901
O      1.27164    -1.38775    -0.08091
H      2.16016    -1.12198     0.24793
O      1.19224     1.52820    -1.07934
H      0.45396     1.79996    -0.48753
O      0.50144     0.50847    -1.80834
H      0.61638    -0.26922    -1.22286
O     -3.20933    -0.72672    -2.23290
H     -2.91466    -0.03491    -2.84298
O     -2.00304    -0.91188    -1.50914
H     -1.99896    -0.09705    -0.95759
O     -1.00999    -0.21566     2.12093
H     -1.49996    -1.03486     1.91636
O      0.25364    -0.68453     2.60741
H      0.50666    -1.38042     1.96718
O     -1.50609     2.64081    -2.76635
H     -0.63498     2.98216    -2.99849
O     -1.49802     1.33157    -3.33438
H     -0.75444     0.91681    -2.84176
O      4.28888     0.34990     1.04372
H      3.65814     0.69303     1.71755
O      3.72441    -0.94343     0.82191
H      4.29695    -1.52132     1.33570
O     -2.35861    -2.33501     1.09542
H     -3.25804    -2.38166     0.75693
O     -1.58989    -2.94168     0.05417
H     -1.70596    -2.27568    -0.66823
