 24
-909.9753293049286
O      0.22842    -2.62070    -1.52564
H     -0.72025    -2.41766    -1.54060
O      0.23463    -3.82403    -0.75485
H      0.64002    -4.44238    -1.37246
O     -2.18179    -1.70287    -0.43757
H     -1.91910    -0.76933    -0.45960
O     -1.85256    -2.04734     0.91618
H     -1.34297    -2.85590     0.78007
O      1.42547    -0.63086    -0.07741
H      1.06480    -1.38347    -0.58833
O      1.49572     0.41200    -1.06788
H      0.55520     0.69111    -1.08371
O     -0.91271     2.38668    -1.13453
H     -0.28221     2.79972    -0.50265
O     -0.99701     1.05456    -0.63745
H     -1.02487     1.16753     0.33698
O      0.60245     0.76490     2.02098
H      0.94489     0.22555     1.27109
O     -0.80879     0.54134     1.93926
H     -0.88265    -0.42336     1.89065
O      0.79098     3.17372     0.75727
H      0.80649     2.47413     1.43740
O      2.09124     3.07217     0.18772
H      2.00960     2.28249    -0.36715
