 16
-606.6350418429735
O     -2.69007     0.36361     1.60649
H     -3.01524    -0.04631     2.41304
O     -1.47785    -0.36927     1.40898
H     -0.78688     0.29030     1.61479
O      1.42776    -0.12919     1.80888
H      1.26691    -0.79813     1.12940
O      0.86824     1.05228     1.22707
H      1.24687     1.04700     0.32654
O      1.55663     0.46850    -1.33854
H      0.70285     0.02912    -1.52766
O      1.45178     1.66663    -2.11255
H      2.25434     1.60486    -2.63819
O     -0.84099    -0.82057    -1.19232
H     -1.22224    -0.70924    -0.29840
O     -0.28128    -2.13388    -1.09048
H     -0.78301    -2.59213    -1.77137
