 40
-1516.639516282746
O      0.28843     2.04180     1.65984
H      1.00845     1.54098     2.06975
O     -0.51150     2.45712     2.77222
H     -1.39472     2.26241     2.41404
O      0.46046    -1.27082    -2.52576
H      0.30373    -1.98515    -3.15152
O      1.76972    -0.82684    -2.86693
H      2.26579    -1.11696    -2.08468
O      0.70155     2.67992    -1.43340
H     -0.01987     2.16193    -1.84616
O     -0.02368     3.49103    -0.49916
H      0.26980     3.07572     0.33374
O     -2.37080    -0.68562     1.20411
H     -1.39521    -0.74458     1.28065
O     -2.55114    -1.47870     0.03464
H     -2.39915    -0.81024    -0.66204
O     -2.70795     2.48711     0.07186
H     -1.90074     3.02551     0.11590
O     -2.81331     1.95399     1.39044
H     -2.80366     0.98874     1.22719
O      2.89548     1.25413     0.77439
H      3.51052     0.50847     0.78209
O      2.00298     0.71697    -0.20603
H      1.71810     1.52014    -0.69969
O      3.10174    -1.90044    -0.33374
H      2.38398    -2.01507     0.32953
O      4.05601    -1.16708     0.43389
H      4.88374    -1.47967     0.05629
O     -1.69843    -3.75658     1.15734
H     -2.09040    -2.96027     0.74589
O     -0.65391    -4.00201     0.20657
H     -0.50740    -4.94462     0.32652
O      0.21563    -0.86682     1.02989
H      0.82458    -0.30965     0.48011
O      0.93306    -2.09032     1.20430
H      0.28832    -2.73961     0.85009
O     -1.06226     0.93903    -2.43790
H     -0.54964     0.11007    -2.50849
O     -2.16257     0.51921    -1.63906
H     -2.41917     1.33833    -1.16255
