 36
-1364.9768242257041
O      0.13869     1.24313     1.66634
H     -0.33946     0.52202     2.12693
O      1.28195     0.52837     1.17391
H      1.74201     1.22914     0.67700
O      0.06066    -1.26516    -0.77606
H      0.39840    -0.36739    -0.60610
O     -1.35069    -1.07036    -0.76461
H     -1.58203    -1.21623     0.17908
O     -2.08438    -1.26991     1.85148
H     -2.53653    -0.39733     1.88736
O     -0.93510    -0.98947     2.65873
H     -0.33912    -1.70949     2.39600
O      3.30373    -0.87966    -0.36192
H      2.93166    -1.49654     0.30215
O      3.80184    -1.77077    -1.35405
H      4.68324    -1.41123    -1.47766
O     -2.94167     1.19945     1.51308
H     -2.64184     1.55166     0.64249
O     -4.26714     0.76691     1.21273
H     -4.72891     1.10895     1.98213
O     -0.65616     2.82246    -0.29061
H     -0.41879     2.30992     0.50716
O     -1.77869     2.04464    -0.73951
H     -1.46299     1.77056    -1.63610
O      1.86344     0.86290    -1.74869
H      2.48324     0.22333    -1.33060
O      2.05995     2.01165    -0.91601
H      1.21872     2.47732    -1.05176
O     -1.12452     0.02031    -3.28234
H     -1.25034    -0.37860    -2.40888
O     -0.52624     1.27789    -2.93717
H      0.39961     1.02141    -2.78441
O      2.23038    -2.66366     1.34477
H      2.45628    -3.59537     1.25396
O      0.80815    -2.69573     1.30011
H      0.61473    -2.27830     0.43101
