 36
-1364.971649042281
O      1.77668     2.21943     1.34502
H      2.09740     2.08416     0.42988
O      2.34538     1.11183     2.05793
H      1.55259     0.81298     2.52001
O     -0.43919    -1.08401    -1.88208
H      0.28697    -1.15695    -1.22693
O     -1.53988    -1.68880    -1.19628
H     -2.06441    -0.92523    -0.88651
O     -0.21121    -0.30572     2.05314
H     -1.17824    -0.21517     1.91614
O     -0.13416    -1.48197     2.86960
H     -0.36392    -2.17093     2.20120
O      1.38067    -0.85125     0.06582
H      0.71805    -0.50232     0.71819
O      2.25172    -1.58126     0.91816
H      2.49504    -0.89161     1.55939
O     -2.80397    -0.04768     1.51982
H     -3.65095    -0.36488     1.85127
O     -3.06609     0.16284     0.13220
H     -2.77896     1.09148     0.02945
O     -0.62147     1.52906    -0.11000
H     -0.07740     2.06109     0.49446
O     -1.71597     2.39209    -0.42493
H     -1.59970     2.40263    -1.38882
O      2.98139     1.09523    -1.71638
H      2.78993     0.38350    -1.08873
O      2.03314     2.07843    -1.30613
H      1.29849     1.93044    -1.93646
O      0.03612     1.34917    -2.97440
H     -0.18742     0.43759    -2.69440
O     -1.25596     1.94046    -3.08142
H     -1.15746     2.44636    -3.89147
O      0.23348    -4.00943     0.63654
H      0.97758    -3.41517     0.80357
O     -0.87252    -3.17192     0.94737
H     -1.07473    -2.73743     0.09012
