 32
-1213.3094424067428
O      3.81052    -0.24953     0.08460
H      3.32414     0.49638    -0.30013
O      4.60838     0.40660     1.06990
H      5.49528     0.25649     0.72675
O     -0.60894    -2.38284    -1.03239
H     -0.62449    -2.03858    -1.93914
O     -1.83597    -1.79619    -0.56267
H     -1.70607    -1.84974     0.40984
O     -0.80337    -0.29406    -2.71903
H      0.00848     0.22049    -2.57254
O     -1.76368     0.43860    -1.94893
H     -2.05603    -0.26767    -1.33702
O     -0.45198     2.28314    -0.53212
H     -1.06578     1.68825    -1.01800
O     -0.37464     1.70639     0.76992
H      0.10294     0.85807     0.62188
O      1.52963     1.03760    -2.57072
H      1.74403     1.69865    -3.23582
O      2.00190     1.65599    -1.37676
H      1.16118     2.01652    -1.00750
O      1.49797    -1.24714     1.43148
H      2.43350    -1.15286     1.18333
O      0.89849    -0.58020     0.30430
H      0.47476    -1.32240    -0.18405
O     -1.57142    -1.17224     3.12244
H     -2.06719    -0.44696     2.70777
O     -1.09379    -1.87111     1.97140
H     -0.13327    -1.71814     2.02919
O     -2.72224     0.99191     1.84333
H     -1.90434     1.40787     1.50213
O     -3.30793     0.54720     0.62134
H     -4.17229     0.96740     0.65698
