 36
-1364.972638223189
O     -2.16579     1.81138    -2.38549
H     -2.71504     2.49427    -2.78887
O     -0.86332     2.11041    -2.88766
H     -0.47038     2.54376    -2.10949
O      0.23017    -2.52088    -0.41120
H      0.02179    -2.02346    -1.22193
O     -0.67686    -3.62496    -0.42842
H     -1.50783    -3.13803    -0.26500
O      1.13032    -0.17233     2.28944
H      1.67127    -0.97532     2.15843
O     -0.15677    -0.63178     1.89367
H     -0.01929    -0.86106     0.95242
O      0.04356     0.12489    -1.03572
H      0.91296     0.50762    -0.77868
O      0.32910    -0.43993    -2.31796
H     -0.20922     0.15631    -2.85934
O      0.83635     3.72791     0.56349
H      1.62345     3.20138     0.37599
O     -0.13187     3.06432    -0.25367
H     -0.68165     2.59354     0.40775
O     -1.70234     1.49454     1.29509
H     -1.21567     0.71904     1.64392
O     -2.66378     0.90442     0.41131
H     -2.35383     1.19840    -0.46014
O      3.25846    -1.79755     0.19727
H      3.96627    -2.44948     0.21541
O      2.34311    -2.31699     1.16023
H      1.60169    -2.58156     0.57074
O      2.49606     0.76641    -0.27613
H      2.92695    -0.09166    -0.10120
O      2.76362     1.51994     0.90284
H      2.10290     1.14932     1.51485
O     -2.73792    -2.29516     1.43060
H     -1.86032    -2.19970     1.82633
O     -2.51320    -1.76158     0.12908
H     -2.65258    -0.79601     0.26777
