 36
-1364.9736366649208
O     -0.00644     1.49619     2.55028
H      0.28276     1.59306     3.46299
O      0.62133     2.61171     1.93171
H     -0.15198     3.06940     1.56038
O     -2.54107    -0.49512     0.87231
H     -2.47651    -1.29944     0.32235
O     -2.90710     0.46334    -0.11623
H     -2.89111     1.28753     0.39738
O      2.18441     1.96080    -0.17525
H      1.71022     2.18231     0.65182
O      2.88491     0.77293     0.20704
H      2.91643     0.28676    -0.64287
O     -0.82774     1.70109    -1.58807
H     -1.21067     0.83971    -1.34631
O      0.45128     1.34574    -2.11737
H      1.05112     1.65187    -1.40504
O      1.24761    -0.98057     1.49768
H      1.91408    -0.31236     1.24303
O      0.28431    -0.73531     0.46557
H     -0.51854    -0.48859     0.96241
O     -2.71749     2.98338     0.80076
H     -3.33402     3.65773     0.50226
O     -1.47708     3.46934     0.30281
H     -1.30666     2.86446    -0.44858
O     -1.26432    -2.26952    -1.81329
H     -1.70934    -2.89558    -2.39438
O     -1.77497    -2.65896    -0.54031
H     -0.97510    -3.03496    -0.10677
O      1.49532    -4.14532     0.15832
H      1.73505    -3.50748    -0.53185
O      0.41168    -3.46350     0.79799
H      0.86051    -2.70808     1.21879
O      1.84776    -1.76115    -1.44852
H      1.20019    -1.30891    -0.87413
O      2.55219    -0.66754    -2.03178
H      1.85365    -0.18579    -2.50418
