 40
-1516.6402348418092
O      1.71853     0.76928     2.89791
H      2.48807     1.08754     2.40909
O      1.09519     0.02659     1.85338
H      0.20540     0.41574     1.77862
O      1.99756    -0.82632    -1.13681
H      2.47052    -1.62552    -0.82942
O      0.72476    -1.40310    -1.46465
H      0.28665    -0.62794    -1.88040
O     -0.38611     0.88798    -2.18881
H     -0.26786     1.48308    -1.40642
O     -1.80971     0.83738    -2.35631
H     -2.00277    -0.09635    -2.12455
O     -1.70178     0.17433     1.13398
H     -2.34187     0.78964     0.73708
O     -2.46707    -1.01546     1.31804
H     -1.74459    -1.67398     1.26665
O     -2.82111     2.78344    -0.88144
H     -2.53750     2.07158    -1.50017
O     -3.40683     2.01514     0.16037
H     -4.33127     2.27173     0.11631
O     -0.33969     3.71515    -0.18697
H     -1.28480     3.54437    -0.32411
O      0.09406     2.36176    -0.05921
H      1.04382     2.47732     0.15794
O      3.38664     1.34967     0.42411
H      2.78890     0.74086    -0.04496
O      2.72491     2.59850     0.23495
H      3.27847     3.05219    -0.41004
O     -0.35732    -2.53955     0.70536
H      0.02339    -2.13935    -0.10759
O      0.75749    -2.60634     1.59467
H      0.92159    -1.65921     1.79699
O      2.94204    -3.06187     0.09411
H      2.19689    -3.13512     0.72849
O      3.98330    -2.54759     0.92556
H      4.62387    -3.26396     0.87953
O     -3.60691    -1.60986    -1.07813
H     -3.35862    -1.44958    -0.14750
O     -2.29542    -1.67462    -1.64922
H     -2.32260    -2.51501    -2.11734
