 24
-909.9797698330955
O     -1.67860    -1.20719     0.01820
H     -2.37080    -0.67555    -0.42525
O     -1.61868    -0.52764     1.27685
H     -1.00256    -1.09446     1.76232
O      0.35197    -0.73624    -1.66298
H     -0.38401    -0.96965    -1.06175
O      0.12868     0.66598    -1.85945
H      0.48087     1.05143    -1.02002
O      2.43898    -1.26013    -0.11042
H      1.81296    -0.97702    -0.81908
O      3.36742    -0.18615    -0.06752
H      4.11835    -0.57681    -0.52314
O     -3.24665     0.37753    -1.41038
H     -3.76190     0.26340    -2.21492
O     -2.46149     1.53245    -1.70076
H     -1.57445     1.14346    -1.83896
O      1.23663    -0.06115     2.56022
H      2.05991    -0.17628     3.05182
O      0.92165    -1.39059     2.13141
H      1.42646    -1.42988     1.29286
O      0.84828     1.59224     0.49243
H      0.98842     1.00308     1.26593
O     -0.40501     2.20983     0.76464
H     -0.98952     1.44691     0.89147
