 36
-1364.9777690134579
O     -1.43422     0.77710    -1.95981
H     -1.79860    -0.02827    -1.54433
O     -1.96532     1.79625    -1.10953
H     -1.54068     2.59154    -1.48117
O     -1.05318    -2.53874    -1.04318
H     -0.31049    -2.03605    -1.45516
O     -2.01980    -1.52720    -0.76277
H     -1.93456    -1.40999     0.20716
O      1.43117    -0.98623     1.69160
H      1.39541    -1.93183     1.45208
O      1.40624    -1.00725     3.11508
H      0.45527    -1.14332     3.25991
O      1.97578    -0.86705    -1.26094
H      2.31056     0.01573    -1.49746
O      0.86371    -1.02449    -2.13219
H      0.37743    -0.19182    -2.02437
O     -0.43503     3.89195    -1.91283
H      0.50193     3.65857    -1.80834
O     -0.61838     4.80045    -0.82787
H     -0.92293     5.58262    -1.29772
O      0.29355     0.94672     0.31183
H      0.66970     0.18493     0.82332
O     -0.70780     1.46551     1.20051
H     -1.35683     1.72692     0.51715
O      0.94978    -3.57772     1.05506
H      1.28426    -4.46073     1.23633
O     -0.45663    -3.74395     1.22507
H     -0.75706    -3.47616     0.32718
O      2.89603     1.67471    -1.49010
H      3.65529     1.84330    -0.92161
O      1.92658     2.57391    -0.96690
H      1.35780     1.96059    -0.44366
O     -1.21634    -1.65808     2.83733
H     -1.03640    -2.46500     2.32546
O     -1.88902    -0.88645     1.84124
H     -1.41263    -0.02919     1.85423
