 40
-1516.6392278374901
O      3.87929     1.71872    -0.74164
H      4.22632     1.40924     0.10917
O      3.22304     2.94636    -0.39369
H      2.33899     2.62449    -0.14424
O      3.88856    -0.28580     1.30042
H      3.55653    -0.77199     0.51884
O      2.73585    -0.31549     2.14295
H      2.29721     0.54093     1.96832
O      0.98367     1.76953     1.82572
H      0.17813     1.23547     2.01332
O      0.82819     2.01773     0.42488
H      0.00372     2.53044     0.37555
O     -1.13847     0.16999     1.75653
H     -0.77033    -0.26488     0.96278
O     -2.31535     0.81053     1.26908
H     -2.91319     0.06840     1.03950
O     -4.03013    -1.16150     0.60301
H     -4.89851    -1.35302     0.97181
O     -4.32414    -0.94745    -0.77954
H     -3.72364    -1.60408    -1.18061
O      2.73042    -1.26307    -0.92666
H      1.93417    -1.64773    -0.49858
O      2.11552    -0.10254    -1.51098
H      2.76409     0.60774    -1.28943
O     -2.44439     2.37927    -1.60799
H     -2.31265     3.15300    -2.16258
O     -1.87375     2.82017    -0.38237
H     -2.16706     2.09953     0.21835
O     -2.23610    -2.59275    -1.47400
H     -1.52772    -1.95774    -1.72015
O     -1.76996    -3.11341    -0.22104
H     -2.42339    -2.75431     0.39464
O      0.54130    -1.85941     0.35625
H     -0.16662    -2.50236     0.15208
O      1.00234    -2.30652     1.63703
H      1.67091    -1.61053     1.82241
O     -0.98975     0.17324    -1.12259
H     -1.38848     0.92809    -1.59392
O     -0.45024    -0.66102    -2.14875
H      0.50782    -0.50055    -1.98514
