 36
-1364.9665514733792
O     -3.25279     1.26391     0.32169
H     -2.74111     0.99048    -0.46303
O     -2.59758     0.52634     1.35432
H     -2.81823    -0.38837     1.11240
O     -2.36398    -3.04954    -0.62442
H     -3.25991    -3.01164    -0.96859
O     -2.41313    -1.99307     0.33168
H     -1.48010    -1.95810     0.62489
O      2.56176    -2.15875     0.64735
H      2.72604    -1.21909     0.42596
O      3.02207    -2.79384    -0.53906
H      3.32793    -3.63114    -0.18103
O     -0.29603    -2.29198    -2.27941
H     -1.03700    -2.51042    -1.68827
O      0.59542    -1.67721    -1.34805
H      1.22858    -2.38260    -1.12658
O      2.02728     3.14431     2.38787
H      1.20215     2.97050     1.89415
O      2.99870     2.76913     1.40943
H      3.21591     3.60497     0.98456
O     -0.02709     2.59756     0.70718
H      0.36345     1.88481     0.14620
O     -0.97787     3.20818    -0.14815
H     -1.80459     2.92876     0.27273
O     -1.70552     0.32088    -2.94564
H     -1.06056    -0.39903    -2.95518
O     -1.46791     0.83805    -1.63743
H     -1.09049     1.71611    -1.80220
O      2.49460     0.46671     0.14667
H      2.62229     1.29885     0.65510
O      1.33285     0.78486    -0.62295
H      0.98740    -0.10625    -0.84295
O     -0.06963    -1.57043     1.48517
H      0.84043    -1.90190     1.44189
O      0.17469    -0.20182     1.84455
H     -0.71542     0.17881     1.77150
