 12
-454.9742728400513
O     -1.92999    -0.16743    -0.23851
H     -2.79463     0.24721    -0.14998
O     -1.79453    -0.84517     1.01867
H     -1.15551    -0.26441     1.46101
O      1.74454    -1.06890    -0.30387
H      1.00577    -1.66206    -0.47977
O      1.88209    -0.39402    -1.56320
H      1.53557     0.47926    -1.32627
O      0.22321     1.48357    -0.06935
H     -0.55512     0.95624    -0.31436
O      0.55032     0.85066     1.17702
H      1.12739     0.13778     0.84581
