 32
-1213.307104820519
O      1.51198    -2.60579     0.98761
H      1.00085    -2.84939     0.18727
O      2.65818    -2.01243     0.38165
H      3.37860    -2.43772     0.85574
O      0.09380    -2.93678    -1.24731
H      0.12056    -3.58770    -1.95668
O     -1.23964    -3.04143    -0.74330
H     -1.60841    -2.19101    -1.02692
O      1.56936    -0.24548    -2.12008
H      0.67102    -0.52290    -1.87916
O      2.04032     0.25623    -0.87794
H      2.31621    -0.55186    -0.39960
O      0.37751     3.34464    -2.07274
H      0.14879     3.25196    -1.13116
O     -0.12729     2.09084    -2.56506
H      0.68816     1.60806    -2.75575
O     -0.23057     2.48045     0.41204
H     -0.87371     2.11215     1.04533
O      1.01988     1.97388     0.88348
H      1.32218     1.44675     0.11772
O     -1.19377    -0.09538    -1.05740
H     -1.17049     0.79277    -1.46404
O     -2.58306    -0.31569    -0.83590
H     -2.64239    -0.13329     0.11864
O     -0.06688    -0.73816     2.19190
H      0.56966    -1.41075     1.88250
O      0.78003     0.19314     2.87150
H      0.89577     0.87429     2.17758
O     -2.51040     0.29613     1.88037
H     -1.62665    -0.07645     2.09720
O     -2.24611     1.69055     2.00930
H     -2.67922     1.91323     2.83953
