 36
-1364.9683293310147
O      0.43794     2.68453     0.65236
H      1.39804     2.57490     0.50138
O      0.10776     1.31295     0.92033
H     -0.87152     1.33444     0.94014
O     -2.09666    -2.39846     0.12600
H     -2.34892    -1.91610     0.92780
O     -2.72646    -1.58178    -0.86888
H     -2.22588    -1.83488    -1.65688
O      2.64361     0.09641     2.74502
H      2.83182     0.51915     3.58757
O      1.24159    -0.12460     2.86488
H      0.89003     0.47025     2.16721
O      3.39347     2.37244    -1.04619
H      4.30188     2.63078    -0.86327
O      2.98491     1.86102     0.21572
H      2.83057     0.91609     0.01787
O     -2.68730    -0.20213     1.86779
H     -3.55679    -0.02374     2.23855
O     -2.55883     0.86417     0.93274
H     -2.65290     0.40013     0.08199
O     -1.76537     2.33292    -1.71547
H     -1.11333     2.69156    -1.09856
O     -1.47298     0.93877    -1.57644
H     -1.29724     0.64052    -2.48894
O      1.98983    -0.68142    -0.26023
H      1.52924    -1.42336     0.20565
O      1.07473    -0.40009    -1.32332
H      0.45059     0.21235    -0.88977
O     -0.80691    -0.53174    -3.71023
H      0.00890    -0.50489    -4.21919
O     -0.62560    -1.66396    -2.85657
H      0.03951    -1.32244    -2.21667
O      0.53175    -2.61998     0.79930
H     -0.38263    -2.65792     0.46352
O      0.31076    -2.61060     2.21098
H      0.72668    -1.76427     2.45889
