 36
-1364.96982737948
O      1.53654     2.06657     0.77258
H      1.44103     1.68649    -0.12329
O      1.90904     0.89600     1.51500
H      1.09375     0.66359     2.02250
O      0.31101    -1.89167    -1.22055
H      1.15380    -1.70113    -0.76352
O     -0.63443    -1.74790    -0.16114
H     -0.97924    -0.82658    -0.26597
O     -1.37991     0.10091     2.20377
H     -1.58914     1.03629     2.32833
O     -0.15350    -0.00848     2.94310
H     -0.02467    -0.97450     2.90328
O      2.69039    -1.08048    -0.10959
H      2.47857    -0.39513     0.56680
O      3.60077    -0.38679    -0.95346
H      4.43004    -0.81305    -0.72108
O     -1.06213     2.69887     0.96221
H     -0.08447     2.62657     1.04845
O     -1.47595     2.86569     2.31161
H     -2.16237     3.52745     2.19339
O     -1.78447     0.62054    -0.61024
H     -1.53438     1.43009    -0.12503
O     -3.07940     0.96513    -1.11198
H     -3.11973     0.34448    -1.84933
O      0.34408     1.79168    -2.51324
H     -0.42712     1.24910    -2.74712
O      0.96618     0.92876    -1.56488
H      1.66394     0.47663    -2.06257
O     -1.10325    -0.71080    -3.25822
H     -0.66779    -1.25398    -2.56808
O     -2.40378    -1.29671    -3.32070
H     -2.42486    -1.61844    -4.22655
O      1.53338    -2.95526     1.92776
H      1.56482    -3.83895     2.30468
O      0.18066    -2.60004     2.20440
H     -0.15899    -2.43531     1.29839
