 32
-1213.3148045706043
O      1.76257    -0.75609     0.85303
H      1.99845     0.13904     0.51647
O      2.97057    -1.49067     0.69675
H      2.92957    -1.68413    -0.25454
O     -0.49184    -1.77633    -0.11090
H      0.35997    -1.44919     0.25264
O     -0.26362    -1.65037    -1.51551
H     -0.87951    -0.92427    -1.74954
O     -1.99538     0.29698    -1.98654
H     -2.22237     0.89196    -2.70725
O     -3.24675    -0.34097    -1.72167
H     -3.34426    -0.10125    -0.77821
O     -1.02428     2.15026     0.30272
H     -0.49491     1.70686    -0.38827
O      0.02341     2.61073     1.16611
H     -0.05282     1.96615     1.89863
O      2.03993     1.66688    -0.29021
H      1.53066     2.26961     0.28567
O      0.97686     1.21709    -1.14326
H      1.46826     0.57451    -1.69779
O      2.30693    -1.80351    -1.95155
H      1.33332    -1.87817    -1.81859
O      2.34669    -0.52667    -2.58244
H      2.51619    -0.75252    -3.50224
O     -0.32787     0.65792     2.94742
H     -1.14119     0.19370     2.65635
O      0.40824    -0.38922     3.57190
H      1.10742    -0.53587     2.92389
O     -2.98874     0.40349     0.85038
H     -2.34406     1.13190     0.77650
O     -2.24746    -0.58257     1.56347
H     -1.77957    -1.07853     0.86257
