 28
-1061.6429878828683
O      0.33529    -1.52211    -1.63816
H      0.49932    -0.66403    -1.22417
O      0.21664    -2.38196    -0.50251
H      1.13616    -2.34922    -0.12674
O      2.45618    -1.69747     1.77904
H      1.68664    -1.10320     1.74702
O      2.67337    -1.96873     0.39297
H      3.07322    -1.13447     0.07839
O     -2.14000    -0.78331     1.16163
H     -2.67467     0.01976     1.07236
O     -2.18918    -1.30130    -0.17861
H     -0.52111    -0.35258     1.40534
O     -3.01158     1.05365    -2.46993
H     -2.61842     1.08815    -3.34658
O     -1.85159     0.89006    -1.66188
H     -1.97625    -0.02261    -1.31638
O     -2.65961     2.05295     0.65487
H     -2.42262     1.86847    -0.27534
O     -1.38819     2.43679     1.17822
H     -1.50510     3.37858     1.33888
O      0.51825     0.82705     0.35137
H     -0.15472     1.51677     0.52141
O      0.36661     0.03842     1.54562
H     -1.36484    -1.84185    -0.21423
O      3.13892     1.38539     0.36900
H      2.17956     1.20751     0.34719
O      3.59472     0.39476    -0.57104
H      4.53070     0.60992    -0.62531
