 32
-1213.303853132207
O      2.72735    -0.49435     3.96391
H      3.30160    -0.04754     4.59147
O      2.57482     0.52933     2.98143
H      2.96179     0.11770     2.18195
O     -1.06355    -0.81978    -2.84712
H     -1.89963    -1.20266    -2.51066
O     -0.21845    -1.95429    -2.99883
H      0.15787    -2.03058    -2.10813
O     -2.88893    -1.07719    -0.48157
H     -2.87963    -0.12023    -0.68649
O     -3.37812    -1.59282    -1.71702
H     -3.80825    -2.40159    -1.42575
O      1.01581     0.71991    -2.19247
H      0.25183     0.19393    -2.51610
O      0.33292     1.68029    -1.37984
H      0.66495     1.46029    -0.49076
O      2.90125    -0.62772     0.56031
H      2.02104    -1.03841     0.51838
O      2.66806     0.68051     0.02377
H      2.72232     0.52508    -0.93112
O     -2.22169     1.42172    -1.10801
H     -1.23498     1.51836    -1.26079
O     -2.40777     2.04358     0.16477
H     -2.68151     2.92880    -0.09534
O     -0.04267     1.77698     1.45354
H     -0.96671     1.78132     1.15525
O     -0.04556     0.70129     2.39317
H      0.87512     0.76369     2.72419
O      0.15363    -1.75079     1.25527
H      0.04807    -0.89126     1.71463
O     -0.13486    -1.38094    -0.09638
H     -1.10746    -1.29961    -0.09430
