 32
-1213.3117796622225
O      1.92872    -1.90649     0.81506
H      1.09803    -2.23700     0.41087
O      2.56533    -1.31215    -0.32284
H      3.01003    -0.55060     0.08549
O     -0.98790    -2.08009     1.06656
H     -0.68743    -1.21521     1.41717
O     -0.47057    -2.05124    -0.26125
H     -0.82595    -1.21416    -0.64020
O     -1.34229     0.27450    -1.25950
H     -0.63299     0.93364    -1.12203
O     -2.31517     0.77672    -0.32462
H     -2.92605     0.01558    -0.27933
O     -0.71527     2.84754     0.76337
H     -1.57720     2.50463     0.49279
O      0.06066     2.23379    -0.27282
H      0.93926     2.63238    -0.18026
O      3.25981     1.15941     0.54234
H      2.56458     1.22090     1.21369
O      2.81596     2.07401    -0.45521
H      2.61068     1.47356    -1.18805
O      0.76391    -0.07253    -3.47397
H     -0.19044    -0.07320    -3.32272
O      1.23410     0.35147    -2.19544
H      1.49087    -0.48432    -1.76989
O     -0.13691     0.24783     2.01063
H     -0.20521     1.12526     1.60363
O      1.24785     0.16500     2.38436
H      1.49660    -0.67741     1.95529
O     -3.65095    -1.51162     1.16886
H     -2.75826    -1.89896     1.12525
O     -3.89987    -1.35856    -0.22631
H     -4.83271    -1.57868    -0.28610
