 36
-1364.9752245654242
O      0.43931     2.99327     0.40772
H     -0.43386     2.68306     0.07293
O      0.49193     2.31339     1.65447
H      0.60081     3.04659     2.26542
O     -1.80933     0.63385     2.81766
H     -1.37007     1.34751     2.33854
O     -3.03480     0.52173     2.09375
H     -2.89651    -0.30046     1.60078
O      1.13667    -2.90112    -1.19869
H      0.31862    -2.45152    -1.46288
O      0.77636    -3.51220     0.03880
H      1.23289    -2.93458     0.67862
O     -1.84147    -0.36973    -2.01816
H     -1.98981    -0.88486    -1.19680
O     -0.44575    -0.62660    -2.21326
H     -0.04385     0.25153    -2.10919
O      0.66573    -0.55167     1.47411
H      1.04560     0.31478     1.68565
O      1.76605    -1.44926     1.58679
H      2.36013    -1.06558     0.90060
O     -1.77246     1.75685    -0.33675
H     -2.02595     1.16499    -1.07632
O     -3.00944     2.33015     0.09448
H     -3.19385     1.75004     0.85691
O      2.33395     2.07350    -1.27397
H      1.67560     2.53739    -0.72816
O      1.51279     1.59311    -2.34514
H      2.05150     0.83353    -2.60422
O     -1.60085    -1.39005     0.36185
H     -0.80585    -1.11019     0.86442
O     -1.76182    -2.75775     0.69798
H     -0.91397    -3.13487     0.39584
O      2.68288    -0.74103    -1.63721
H      2.20284    -1.55841    -1.40846
O      3.09858    -0.27282    -0.34728
H      2.96550     0.68632    -0.48334
