 28
-1061.6385764233976
O      0.26771    -0.34153    -2.44684
H      0.03140    -1.28560    -2.57521
O     -0.96619     0.18281    -1.92814
H     -0.64852     0.96551    -1.42426
O      1.79094     0.36348     2.40524
H      1.94961     0.06209     1.49801
O      0.43318    -0.05536     2.54693
H      0.40761    -0.40177     3.44587
O     -0.11092     2.14865    -0.38071
H      0.75041     2.58876    -0.38922
O     -1.06092     3.21123    -0.25859
H     -0.07744    -3.71924    -3.02023
O     -2.44097     0.68610     2.36976
H     -2.28427     0.18978     1.55110
O     -1.71051     1.89284     2.14821
H     -0.80824     1.61989     2.36723
O     -0.28485    -1.74435     0.60330
H     -0.08644    -1.06159     1.27264
O     -1.60103    -1.34798     0.19316
H     -1.40516    -0.89188    -0.65378
O      0.80790    -3.06850    -1.50522
H      0.35594    -2.70450    -0.72173
O     -0.23495    -2.94712    -2.47027
H     -1.50715     2.90972     0.54871
O      2.08916    -0.03855    -0.51300
H      1.44960    -0.12200    -1.26173
O      2.70645     1.22031    -0.79895
H      3.58977     0.94396    -1.06390
