 36
-1364.97518752213
O      2.17290     2.25553    -0.43398
H      1.80686     1.60588    -1.05801
O      0.99971     2.69881     0.26841
H      0.63862     3.36238    -0.34715
O     -1.65496    -2.55627     1.58720
H     -1.08258    -2.18012     2.27475
O     -2.62681    -1.53520     1.32253
H     -2.09607    -0.71803     1.30300
O      0.96296    -0.33563     2.46987
H      1.87038    -0.07689     2.19649
O      0.99454    -1.76386     2.37261
H      1.07466    -1.92111     1.40912
O      0.96546    -2.33213    -0.22874
H      0.79937    -1.54547    -0.78823
O     -0.14227    -3.18297    -0.50249
H     -0.70638    -3.03005     0.28194
O      0.51422     0.12268    -1.26548
H     -0.02086     0.34490    -0.47060
O     -0.32621     0.66020    -2.29469
H     -1.05377    -0.00391    -2.28147
O     -0.94979     0.56838     0.83898
H     -0.24607     0.52993     1.53181
O     -1.79645     1.63998     1.23377
H     -1.70950     2.20605     0.45085
O     -1.33727     2.98792    -1.40963
H     -0.91339     2.22619    -1.85876
O     -0.38352     4.01749    -1.65821
H     -0.94352     4.79813    -1.62179
O      3.24735    -0.54414     0.18528
H      3.54485    -1.31897     0.67144
O      3.22572     0.43479     1.23545
H      2.98310     1.23642     0.72166
O     -1.84593    -2.28279    -2.37636
H     -1.15042    -2.72138    -1.84899
O     -2.09731    -1.14113    -1.55522
H     -2.57237    -1.49490    -0.78555
