 36
-1364.9757582020097
O     -0.11340     2.20356     0.44513
H     -0.91691     2.77100     0.44586
O      0.61550     2.71769     1.56492
H      0.94619     1.88338     1.92129
O     -1.82059    -2.51449     1.24714
H     -2.04425    -1.61010     0.93594
O     -0.90827    -2.20389     2.29940
H     -1.43614    -2.35093     3.09229
O     -0.56672    -2.27074    -1.67198
H      0.21115    -1.83019    -2.06806
O      0.06526    -3.28772    -0.89274
H     -0.54550    -3.35752    -0.14528
O     -1.72609     0.02480    -1.00826
H     -1.33399    -0.86239    -1.17892
O     -1.99901    -0.00323     0.38677
H     -1.18069     0.37574     0.75572
O      0.75099    -0.24683     1.55385
H      0.26776    -1.04687     1.84218
O      1.89548    -0.26050     2.40711
H      2.42104    -0.94695     1.96240
O     -2.14249     3.79931    -0.01205
H     -2.40521     4.58349     0.47934
O     -1.50185     4.38182    -1.15534
H     -1.36452     3.58484    -1.70193
O      0.57410     2.04507    -2.11880
H      0.52877     2.22713    -1.15765
O     -0.81206     2.09001    -2.46787
H     -1.15024     1.30555    -1.99127
O      2.71593    -2.39334     0.94234
H      2.29626    -2.10687     0.11443
O      1.85480    -3.42877     1.39769
H      2.26453    -4.22393     1.03764
O      1.34835    -0.47513    -2.21421
H      1.09135     0.46103    -2.39247
O      2.19277    -0.34274    -1.07735
H      1.59764     0.04882    -0.41761
