 24
-909.9769562331888
O     -2.20464    -0.38892     0.78334
H     -1.96764     0.11339    -0.02049
O     -1.51947    -1.62847     0.56725
H     -0.95483    -1.63152     1.36311
O      0.15007    -1.67336    -1.55664
H     -0.54428    -1.68198    -0.85870
O     -0.63218    -1.59207    -2.74734
H     -0.36423    -2.39848    -3.19739
O      2.20675    -0.08989    -0.66974
H      1.50377    -0.58077    -1.13540
O      2.34275    -0.90191     0.50028
H      3.26899    -1.15819     0.44747
O     -0.82819     1.42762    -2.45880
H     -0.80601     0.51519    -2.77073
O     -1.28442     1.21435    -1.12699
H     -0.57346     1.64638    -0.60762
O      0.82172     2.19079     0.19983
H      1.55291     1.64489    -0.13071
O      1.18424     2.37819     1.57273
H      0.49004     1.86210     2.01653
O      0.07556    -0.68896     2.43202
H      0.81315    -0.44583     1.85123
O     -0.57274     0.57186     2.65156
H     -1.35455     0.44966     2.08066
