 32
-1213.3113893846569
O      3.04488     0.11091    -1.17998
H      2.63896     0.88262    -1.61258
O      3.56228     0.69725     0.01794
H      2.76770     0.71833     0.57024
O     -2.65848    -1.83748     0.00463
H     -2.08620    -1.70611     0.77901
O     -1.72650    -2.25052    -0.99126
H     -1.42795    -1.40476    -1.38519
O     -0.33984    -0.08184    -1.65425
H      0.13579    -0.06256    -0.80539
O     -0.86422     1.24621    -1.69930
H     -1.80252     1.10595    -1.40966
O      0.68102     1.10142     0.90724
H      0.89213     1.99116     0.56011
O     -0.60625     1.31194     1.49406
H     -0.62384     0.57417     2.12083
O      1.57629     3.14912    -0.53253
H      2.47952     3.48252    -0.54634
O      1.57045     2.31536    -1.69165
H      0.62433     2.05762    -1.73852
O      1.42481    -1.55006     0.15697
H      2.13628    -1.20241    -0.42887
O      1.13603    -2.83863    -0.38356
H      0.20614    -2.72671    -0.62827
O     -0.02817    -1.76219     3.39507
H     -0.45910    -2.59860     3.58960
O     -0.47672    -1.52235     2.06664
H      0.34853    -1.62734     1.54199
O     -3.20165     1.10443     0.71897
H     -2.25763     1.28752     0.83836
O     -3.23848     0.66800    -0.64002
H     -3.29839    -0.30124    -0.51809
