 24
-909.9773649956527
O     -3.10385     1.46759     0.14532
H     -3.84985     1.57114    -0.45026
O     -2.45213     0.34500    -0.43235
H     -1.64288     0.76497    -0.81486
O      0.46837    -1.43894    -2.30792
H      0.06610    -1.70118    -1.44890
O      1.54591    -0.59462    -1.89262
H      1.87239    -1.02285    -1.08671
O     -0.19017     1.33505    -1.39059
H      0.43703     0.65472    -1.72685
O      0.60555     2.05793    -0.43853
H      0.06260     1.98765     0.36037
O     -1.58022    -2.20777     0.05222
H     -1.94898    -1.35411    -0.23171
O     -0.20200    -1.88507     0.17707
H     -0.21993    -1.16686     0.84192
O     -0.60654     0.04222     1.93964
H     -1.52462     0.22445     2.17162
O      0.06122     1.25080     2.30832
H      0.97624     0.94190     2.27603
O      2.61579     0.64881     1.12541
H      2.24144     1.03647     0.31934
O      2.56082    -0.74038     0.81895
H      3.48897    -0.98466     0.86111
