 32
-1213.3092657161083
O      0.26197     2.88342    -1.29083
H      0.77464     3.19472    -2.04740
O      0.31210     3.99207    -0.38273
H      0.66061     3.52103     0.39442
O      0.06783    -1.72697     0.24768
H     -0.00579    -1.27884    -0.62555
O      0.30430    -3.07192    -0.15210
H     -0.58154    -3.40935     0.04899
O     -1.77529     1.68378    -0.03002
H     -1.10710     2.24223    -0.47087
O     -2.20163     0.87005    -1.12849
H     -2.41095     0.03870    -0.67905
O      1.98019     1.29080     0.57827
H      1.64468     1.43831    -0.32182
O      1.01168     1.99898     1.35811
H      0.53748     1.26297     1.80775
O      3.05628    -1.18941     0.55185
H      2.62387    -0.32070     0.55851
O      2.64172    -1.71105    -0.71534
H      2.02376    -2.40727    -0.43874
O      1.43574     0.25200    -2.07681
H      1.98613    -0.45844    -1.67811
O      0.15759    -0.39828    -2.01668
H     -0.44898     0.35115    -2.11286
O     -1.73010     0.06553     2.09531
H     -1.74563     0.82326     1.47787
O     -0.32724    -0.11541     2.29993
H     -0.10050    -0.78345     1.61811
O     -2.29462    -3.07040     0.55004
H     -3.10783    -3.55488     0.38000
O     -2.72052    -1.72896     0.32100
H     -2.41612    -1.30388     1.14754
