 20
-758.2994618521013
O      0.21539    -3.22097    -0.06194
H      0.92017    -2.83536    -0.61497
O     -0.93657    -2.69624    -0.72857
H     -1.59173    -3.36809    -0.52001
O     -0.49663    -0.31628     0.37905
H     -0.68459    -1.19747    -0.00904
O      0.27924     0.27719    -0.66869
H      0.38345     1.19290    -0.32757
O      0.23295     3.03405     1.39501
H     -0.68080     2.69942     1.33854
O      0.65842     2.79697     0.04758
H      1.51847     3.22567     0.05038
O      2.61856    -1.02695    -0.72713
H      1.74985    -0.58049    -0.75789
O      2.30429    -2.22229    -1.45701
H      3.15374    -2.67291    -1.43720
O     -2.52972     1.40236     0.29381
H     -1.82152     0.73324     0.39249
O     -2.32093     2.15233     1.49993
H     -3.09872     2.71731     1.50063
