 24
-909.9760658343992
O     -1.59296    -1.74833    -0.81726
H     -1.65906    -0.95643    -1.36418
O     -2.07316    -1.28798     0.44142
H     -1.25025    -1.11238     0.93841
O      1.05817    -1.96132    -0.92320
H      0.10385    -2.16389    -0.84555
O      1.09464    -1.23155    -2.15645
H      0.61462    -0.41841    -1.89421
O      2.47558    -0.29878     0.58888
H      1.95238    -0.94782     0.05860
O      3.01806     0.56759    -0.40781
H      3.37592    -0.04969    -1.05561
O     -2.10737     2.14643     1.28906
H     -1.17680     1.89580     1.39066
O     -2.45285     1.46389     0.08164
H     -2.86535     0.64715     0.40204
O      0.35582     0.63191     1.97456
H      1.24463     0.52350     1.58611
O     -0.03575    -0.73836     2.06690
H     -0.12276    -0.86108     3.01770
O      0.65941     1.90477    -0.82773
H      1.46791     1.37099    -0.70079
O     -0.27325     0.92235    -1.31795
H     -1.08424     1.21110    -0.83930
