 36
-1364.971629050662
O      2.46616     2.44850    -0.37526
H      2.21413     1.74708     0.25963
O      1.37712     3.35991    -0.22583
H      1.75906     4.06031     0.31603
O     -0.90464    -1.22825     0.92393
H     -0.79900    -1.47735     1.85500
O     -2.17970    -1.78785     0.59179
H     -2.58412    -0.99581     0.18671
O      0.25696    -0.94386     3.53205
H      0.99775    -0.57825     3.02457
O     -0.33031     0.24048     4.06481
H     -0.15281     0.15348     5.00688
O      1.48829     0.55879     1.22957
H      0.60983     0.41240     0.81723
O      2.10268    -0.72144     1.21011
H      2.04831    -0.98299     0.26897
O     -0.83973     2.07279     0.64299
H     -0.08277     2.55271     0.24967
O     -0.83362     2.56323     1.97937
H     -0.70844     1.73535     2.46270
O     -2.66512     0.53367    -0.65933
H     -2.07864     1.17311    -0.21170
O     -2.07651     0.46803    -1.96077
H     -1.99271    -0.50212    -2.10784
O      0.46418     0.79486    -1.38792
H     -0.42892     0.76897    -1.79608
O      1.36414     0.83487    -2.49736
H      1.94613     1.53517    -2.16485
O     -1.95773    -3.18654    -1.73395
H     -2.07837    -2.85407    -0.82627
O     -1.33516    -2.05984    -2.34594
H     -0.42605    -2.12624    -2.00586
O      1.25744    -2.45297    -1.68322
H      1.72515    -3.14566    -2.15968
O      2.26650    -1.47892    -1.44571
H      1.96153    -0.73532    -2.00195
