 32
-1213.3170018480007
O     -1.26396    -2.19540    -0.12778
H     -0.82488    -1.90365     0.69880
O     -0.34228    -1.75399    -1.11430
H     -0.53865    -0.79700    -1.20464
O      3.34937     0.92231    -0.90643
H      2.83237     1.41226    -0.23766
O      2.31960     0.36550    -1.72348
H      2.20541    -0.51913    -1.34888
O     -3.44228    -0.63859    -0.17782
H     -2.72237    -1.30491    -0.19941
O     -3.47463    -0.24806    -1.54917
H     -4.37639    -0.49089    -1.78147
O     -0.59123     0.91286    -1.31839
H     -1.22566     1.29030    -0.67667
O      0.28595     2.01113    -1.55479
H      1.10458     1.51122    -1.76305
O      1.78391     1.95243     1.08918
H      1.42620     1.10907     1.42374
O      0.60231     2.74400     0.97362
H      0.47253     2.70959     0.00295
O      1.55478    -3.27015    -0.11514
H      0.80921    -2.91273    -0.63661
O      2.29995    -2.06114     0.03213
H      3.21060    -2.36858     0.00553
O     -0.27632    -1.01745     2.01769
H     -0.80070    -0.18970     2.02447
O      1.03618    -0.48862     1.83932
H      1.47514    -1.17992     1.30847
O     -1.51185     1.33842     1.84273
H     -0.77460     1.97378     1.72647
O     -2.25286     1.62754     0.65075
H     -2.87994     0.87799     0.59547
