 28
-1061.6410250292568
O     -2.19345    -2.51404     0.52684
H     -2.05690    -2.53671     1.48350
O     -1.74891    -1.19825     0.21978
H     -0.77898    -1.31923     0.06679
O     -1.66378     0.12087     2.56453
H     -1.84284    -0.20002     1.65586
O     -1.59726    -1.13125     3.26143
H     -2.31570    -1.02092     3.89134
O      1.47718    -0.71266    -0.99164
H      0.81447    -0.94226    -1.67939
O      0.90264    -1.32486     0.17519
H      3.52812     2.55514    -0.69451
O      0.93748     0.70680     1.92926
H      0.09015     0.62903     2.40389
O      0.68252     1.84952     1.10305
H      1.59555     2.02344     0.78577
O     -0.58061     1.52519    -1.24201
H     -0.23310     1.62747    -0.32838
O     -1.99254     1.44242    -1.07368
H     -2.11553     0.48111    -1.07633
O      3.59243     0.75223    -0.12392
H      2.80130     0.30062    -0.47790
O      3.10533     2.08711     0.03211
H      1.08129    -0.64894     0.86299
O     -0.21511     0.02700    -3.40948
H     -0.39761     0.66892    -2.69125
O     -0.48153    -1.18016    -2.69026
H     -0.67364    -1.80341    -3.39883
