 16
-606.6386461408189
O     -2.67857     0.26217     1.36570
H     -3.16437    -0.04940     2.13528
O     -1.49519    -0.53291     1.45337
H     -0.80424     0.14226     1.55165
O      1.45772    -0.17475     1.19953
H      1.73227    -0.19899     0.25827
O      0.77906     1.09223     1.18783
H      1.31057     1.59015     1.81620
O      1.69440     0.21200    -1.43670
H      0.81415    -0.09603    -1.72765
O      1.56423     1.63636    -1.50396
H      1.12639     1.79977    -0.65907
O     -0.52245    -1.75277    -0.97104
H     -0.95620    -1.38399    -0.18550
O     -0.80689    -0.73169    -1.92947
H     -1.19026    -1.24477    -2.64716
