 36
-1364.969646572924
O      0.74729     1.43162     1.60634
H      0.93695     0.47342     1.53263
O     -0.66853     1.45731     1.82386
H     -0.74437     0.95275     2.65644
O     -2.12715    -0.62779     4.08480
H     -2.08245    -0.69020     5.04347
O     -0.74582    -0.46867     3.76442
H     -0.59748    -1.21011     3.14280
O      1.65216     2.95280    -0.33553
H      1.27567     2.39066     0.38879
O      2.70685     3.62491     0.34524
H      2.30186     4.48277     0.50204
O      1.60556    -2.23513    -1.87691
H      1.97062    -1.35107    -1.71899
O      1.68700    -2.83232    -0.57570
H      0.92497    -3.42868    -0.61780
O     -1.08100     3.08306    -1.52533
H     -0.15534     3.13619    -1.24152
O     -1.01411     2.04149    -2.49777
H     -1.78290     1.50858    -2.24748
O     -1.90848    -0.40750    -0.01017
H     -1.50285     0.44678     0.22759
O     -2.34895    -0.17987    -1.34859
H     -1.87460    -0.89668    -1.81611
O      0.88098    -1.22750     1.40054
H      1.28835    -1.70829     0.64406
O     -0.36452    -1.91394     1.55068
H     -0.93546    -1.41412     0.92424
O      2.08886     0.49953    -1.87620
H      2.41062     1.27480    -1.39023
O      0.75926     0.41918    -1.35627
H      0.24267     0.96777    -1.98910
O     -1.09191    -3.32204    -1.24344
H     -1.79236    -2.96884    -0.67967
O     -1.05904    -2.34016    -2.29427
H     -0.10040    -2.15258    -2.31916
