 40
-1516.646454771082
O     -0.43693     1.97995     1.51714
H     -0.08872     2.52978     0.78795
O      0.74854     1.60243     2.21947
H      0.55276     0.66984     2.43568
O      0.26326     0.35229    -2.67038
H      0.62860     1.21595    -2.40116
O     -0.35098    -0.01082    -1.43566
H      0.41764    -0.27772    -0.87652
O      1.31863     2.49244    -1.47042
H      2.04750     2.44769    -0.82826
O      0.33928     3.24537    -0.75557
H     -0.44550     3.12544    -1.33000
O     -2.27694     1.81059    -1.02738
H     -1.61905     1.11077    -1.22902
O     -1.94036     2.76000    -2.03469
H     -2.72605     3.31278    -2.04407
O     -3.44459    -0.45974     0.78752
H     -3.47375    -0.76485    -0.12857
O     -2.03715    -0.44467     0.98559
H     -1.85120     0.48005     1.21867
O      0.45305    -4.17410     0.51982
H      0.18922    -3.58366     1.24959
O      0.40938    -3.24445    -0.56222
H     -0.54195    -3.23217    -0.78833
O      0.54091    -1.13667     2.51887
H      1.34888    -1.36810     2.01887
O     -0.35527    -2.16720     2.09252
H     -1.02530    -1.64600     1.60767
O     -2.12556    -3.00570    -1.34847
H     -2.46486    -3.52473    -2.08428
O     -2.44214    -1.67821    -1.75953
H     -1.58220    -1.21868    -1.67327
O      2.65548    -1.15601     0.91012
H      3.01815    -0.25808     0.94254
O      1.77063    -1.03245    -0.19786
H      1.41827    -1.95722    -0.27771
O      3.28365     1.51823     1.37417
H      2.39793     1.75585     1.71596
O      3.40090     2.37707     0.25029
H      4.14680     2.93400     0.49387
