 20
-758.2977909349289
O     -0.70548    -0.58378     1.24010
H     -1.67130    -0.56273     1.09549
O     -0.28434    -0.85366    -0.11262
H      0.40928    -0.17479    -0.22606
O      2.35147    -2.28071    -0.41873
H      1.39676    -2.17349    -0.31051
O      2.53640    -1.58245    -1.65318
H      3.23776    -2.09893    -2.06116
O     -0.04337     2.08854     1.45718
H     -0.24139     1.13534     1.55301
O     -1.35185     2.64752     1.30519
H     -1.47386     3.07049     2.16068
O      1.97824     0.54791    -0.16226
H      2.46009    -0.01989    -0.78940
O      1.51810     1.60874    -1.00166
H      1.06807     2.14184    -0.33062
O     -3.08410    -1.26735    -0.94553
H     -2.12111    -1.29199    -1.03090
O     -3.20001    -0.52896     0.27846
H     -3.43218     0.35470    -0.02904
