 40
-1516.6359568190467
O      3.87467     2.73422    -1.18293
H      3.98459     3.50604    -1.74460
O      2.50052     2.43393    -1.42553
H      2.10666     2.52059    -0.53012
O     -0.80597    -1.75118    -0.48552
H     -0.56661    -2.69807    -0.56926
O     -1.19172    -1.39549    -1.81303
H     -1.42018    -0.45963    -1.64712
O     -2.53382     0.42846     1.33403
H     -3.17189     0.36881     0.59539
O     -2.22839    -0.94805     1.61468
H     -1.75650    -1.23105     0.80248
O      0.16995     1.73989     0.92980
H     -0.10466     1.57260     1.85111
O      1.56086     2.04091     1.06894
H      1.91360     1.14717     1.27402
O     -3.96447     0.36408    -0.91386
H     -4.92217     0.37572    -1.00465
O     -3.64142     1.74448    -1.10926
H     -2.68318     1.64858    -1.29151
O     -1.07627     1.16632    -1.31383
H     -0.56894     1.36094    -0.49008
O     -0.43537     1.97952    -2.28566
H      0.19976     1.32602    -2.63202
O      2.06751    -0.20415    -1.71447
H      2.30935     0.74395    -1.67451
O      1.09352    -0.17739    -2.76289
H      0.44479    -0.83071    -2.45236
O      2.07077    -0.47756     1.73521
H      1.30012    -0.65596     2.31430
O      1.85534    -1.44444     0.70327
H      1.90964    -0.91764    -0.11730
O      0.29015    -3.90135     1.11312
H      0.98671    -3.22978     1.08852
O      0.19813    -4.19026    -0.27856
H      0.01003    -5.13206    -0.27916
O     -0.11722    -0.69774     3.25399
H     -0.97707    -0.78618     2.77480
O     -0.05607     0.70964     3.48617
H      0.45880     0.74651     4.29770
