 24
-909.9715162343098
O     -1.42637    -0.79979     1.97579
H     -0.93347    -1.06181     1.17450
O     -2.59937    -0.20213     1.42309
H     -3.20813    -0.94651     1.38092
O      1.75416    -0.42938    -2.22606
H      1.40914     0.25403    -1.60617
O      0.54101    -0.93283    -2.78925
H      0.44447    -0.40228    -3.58778
O      1.16364    -1.33810     0.69905
H      1.48017    -0.64616     1.29692
O      2.39138    -1.93352     0.26310
H      2.37578    -1.70843    -0.67827
O     -1.37385    -1.12305    -0.93155
H     -0.61136    -1.05080    -1.53960
O     -2.03939     0.12733    -1.16938
H     -2.31750     0.31741    -0.25964
O      0.82599     1.43964    -0.55909
H      0.43753     1.51078     0.33740
O     -0.17134     2.05424    -1.38195
H     -0.83322     1.33585    -1.44048
O      1.22494     1.09658     2.70395
H      1.56184     1.90773     3.09694
O      0.04560     1.58089     2.05253
H     -0.62048     0.97289     2.41080
