 40
-1516.6409038995646
O      1.13577    -1.01607    -1.91398
H      0.64770    -0.35198    -1.37175
O      2.29099    -1.29082    -1.11403
H      1.92660    -1.90997    -0.43700
O     -2.21401     1.41235     1.60351
H     -2.45841     0.65015     1.03594
O     -1.86049     2.42163     0.63373
H     -1.43851     3.06135     1.24938
O      1.11914     1.21225     1.97061
H      1.90254     1.14754     1.39132
O      0.78457    -0.14840     2.21160
H      0.03533    -0.29164     1.61043
O     -1.43625    -1.33886     0.49468
H     -1.32564    -2.08793    -0.13208
O     -2.64911    -0.72426     0.05448
H     -2.41940    -0.46162    -0.85346
O     -0.65335     3.46549     2.76912
H      0.01100     2.76350     2.84418
O     -1.54171     3.17818     3.84937
H     -2.12830     2.53215     3.43075
O     -0.11640     0.99472    -0.75171
H     -0.72115     1.60524    -0.24435
O      0.42814     1.82552    -1.77514
H      1.33685     1.90721    -1.42946
O     -2.01327     0.04265    -2.53189
H     -1.20470     0.58301    -2.51234
O     -1.61482    -1.04879    -3.35371
H     -2.17331    -0.92167    -4.12595
O      0.12723    -3.49509    -1.94737
H      0.60189    -2.64889    -2.07864
O     -1.16889    -3.04823    -1.55170
H     -1.44873    -2.53418    -2.32961
O      2.14549    -2.42558     1.74173
H      1.73655    -1.59027     2.03124
O      1.19420    -2.79271     0.74316
H      1.08861    -3.74169     0.87146
O      3.15638     0.92820     0.11631
H      2.87436     0.13514    -0.39999
O      2.94019     1.98603    -0.81038
H      3.81332     2.11489    -1.19156
