 24
-909.978819679944
O     -1.01488     0.06384     1.76815
H     -1.75373     0.38862     1.21529
O     -0.04226     1.09371     1.53954
H      0.78906     0.60329     1.69800
O      0.80938    -0.86462    -2.06077
H      0.42610    -1.47433    -1.40634
O      1.97266    -0.38148    -1.37964
H      1.72508     0.55930    -1.30289
O      3.27382     0.76427     1.47344
H      3.85895     0.43828     2.16426
O      2.28641    -0.26272     1.45769
H      2.34506    -0.57676     0.53810
O     -3.58812     0.10027    -0.62945
H     -4.43911     0.54422    -0.56967
O     -2.73475     1.08748    -0.05608
H     -2.13426     1.29012    -0.80318
O     -0.58668    -2.37737    -0.29870
H     -0.86912    -3.29682    -0.28783
O      0.07195    -2.26264     0.96831
H     -0.36284    -1.46083     1.32348
O     -0.68531     1.30444    -1.80164
H     -0.31651     0.46875    -2.14652
O      0.42976     1.76087    -1.02398
H      0.14530     1.57224    -0.10636
