 36
-1364.9771938501635
O      1.79086    -0.73352    -1.03283
H      1.60602    -0.78598    -0.07515
O      0.56965    -1.19220    -1.60522
H      0.00808    -0.39321    -1.62870
O     -3.13724    -3.20843    -2.43238
H     -2.38225    -3.26142    -1.80686
O     -2.80106    -2.04943    -3.19522
H     -2.15737    -2.37262    -3.83450
O      3.39025     1.49791    -0.64999
H      3.15723     0.72941    -1.19287
O      3.76134     0.81542     0.55611
H      3.77500     1.54576     1.19101
O     -1.04531    -3.11179    -0.73008
H     -0.36618    -2.47463    -1.04127
O     -1.62472    -2.41779     0.36942
H     -2.09698    -1.70450    -0.09558
O     -1.54963     0.46777    -1.64500
H     -1.61717     1.19766    -1.01194
O     -2.55702    -0.42332    -1.16145
H     -2.75024    -0.94464    -1.97831
O     -1.61391     1.39148     1.00900
H     -1.09707     0.62293     1.33572
O     -2.91626     1.14292     1.50373
H     -3.33537     0.77711     0.71408
O      1.99851     1.72508     2.57617
H      1.50867     2.28937     1.93550
O      3.23210     2.42904     2.64952
H      3.52159     2.18461     3.53289
O      0.77188     2.19684    -0.52608
H      1.74260     2.07470    -0.53121
O      0.55637     2.91494     0.70264
H     -0.36852     2.66731     0.87196
O     -0.19832    -0.67572     1.89092
H     -0.53647    -1.51944     1.52998
O      1.19025    -0.74417     1.57206
H      1.52997     0.04939     2.02326
