 36
-1364.9762050734978
O      2.24967     2.29574    -1.49955
H      1.28383     2.34259    -1.42307
O      2.55783     1.32842    -0.51429
H      2.76903     0.53345    -1.04492
O     -3.66962    -0.68178    -0.05641
H     -2.95723    -0.81559    -0.70451
O     -2.95740    -0.75830     1.17711
H     -2.73130     0.17219     1.34163
O     -1.09643    -1.64732    -1.24806
H     -0.90505    -2.19154    -0.44876
O     -0.00250    -0.72465    -1.21226
H     -0.11392    -0.23443    -0.35838
O     -0.78031     2.24853    -1.25978
H     -1.45043     2.25024    -0.54737
O     -1.47357     1.54636    -2.30585
H     -0.95507     0.73368    -2.35570
O      3.17201    -0.80091    -2.02735
H      3.26455    -0.76172    -2.98486
O      2.29940    -1.90809    -1.82422
H      1.43274    -1.46258    -1.69697
O      0.71118     1.62562     1.38375
H      1.41797     1.48012     0.71291
O     -0.15925     0.52228     1.10420
H      0.10115    -0.13612     1.77230
O     -1.96969     2.93890     1.78883
H     -1.06000     2.62009     1.70944
O     -2.54226     2.14863     0.74419
H     -3.44858     2.47036     0.67190
O      2.47961    -0.88709     1.53842
H      3.19922    -0.98693     2.17436
O      2.30210    -2.22783     1.07649
H      2.64324    -2.18236     0.16940
O     -0.32315    -2.84676     0.98309
H      0.64102    -2.74793     1.08722
O     -0.79454    -2.05659     2.07283
H     -1.64879    -1.74302     1.72232
