 32
-1213.3086375603236
O      2.62132    -0.26691    -1.04320
H      2.16632    -0.70803    -0.28006
O      2.20592    -1.06001    -2.15421
H      2.88718    -1.73802    -2.17677
O      1.01739    -0.72166     1.99729
H      1.16390     0.17115     1.62098
O      1.22998    -1.54132     0.84340
H      0.31804    -1.72443     0.51517
O     -0.56533     0.77463    -1.12222
H     -0.56046     1.45566    -0.41198
O     -0.68421     1.49224    -2.35140
H      0.24246     1.74189    -2.48133
O      2.04465     2.08021    -2.26590
H      2.34660     1.24075    -1.86478
O      2.14830     2.95593    -1.14578
H      2.84343     3.56411    -1.41537
O      1.17652     1.74605     1.01132
H      1.55775     2.17730     0.21714
O     -0.13025     2.33123     1.02323
H     -0.57960     1.83148     1.73744
O     -0.58540    -2.28988    -1.62306
H      0.11139    -1.66085    -1.86949
O     -1.09915    -1.67318    -0.44901
H     -1.13003    -0.71022    -0.69634
O     -2.73374    -2.19895     2.07273
H     -3.38580    -2.55510     2.68396
O     -3.40699    -2.33483     0.81377
H     -2.63087    -2.31867     0.22816
O     -2.25074     0.37177     1.45597
H     -2.66704    -0.48533     1.66426
O     -1.46685     0.63303     2.62674
H     -0.84079    -0.10861     2.61363
