 20
-758.3071432275367
O     -0.32751    -2.33934     0.22381
H      0.38645    -1.93115     0.73163
O     -0.86611    -1.20296    -0.44946
H     -0.43032    -1.25026    -1.32925
O      1.78490     0.16648     1.31623
H      2.39640     0.67525     1.86036
O      1.20142    -0.74399     2.24464
H      0.32648    -0.34626     2.37969
O      0.82434     1.38111    -0.83784
H      1.18113     0.80804    -0.13327
O      0.36542     2.50479    -0.09037
H     -0.32027     2.09583     0.45369
O      0.51096    -1.03097    -2.71793
H      0.53020    -1.46509    -3.57601
O     -0.22912     0.16011    -3.00959
H      0.15022     0.74937    -2.33219
O     -1.61739    -0.18057     1.88924
H     -1.49035    -0.52499     0.97442
O     -1.69576     1.22821     1.67835
H     -2.64354     1.38875     1.68454
