 24
-909.9780616888821
O     -1.42392    -2.07240     0.06037
H     -2.01306    -2.69723     0.49406
O     -1.69604    -0.86369     0.77518
H     -0.88313    -0.79297     1.34232
O      0.53617    -1.42664    -1.66857
H     -0.24598    -1.74366    -1.18290
O     -0.02016    -0.36810    -2.44835
H      0.17782     0.40325    -1.88991
O      2.43594    -1.03849     0.11333
H      1.83694    -1.08850    -0.66878
O      2.96720     0.28378    -0.01089
H      3.47024     0.35492     0.80625
O     -2.50590     2.01068    -0.46779
H     -2.78921     2.63447    -1.14286
O     -2.78325     0.75638    -1.10986
H     -2.42173     0.15267    -0.43525
O      1.06397     0.34086     2.52590
H      0.64635     0.91153     1.85425
O      0.59706    -0.94016     2.08763
H      1.30181    -1.17027     1.45365
O      0.71338     1.56324    -0.68002
H      1.55277     1.21056    -0.32593
O     -0.04605     1.72791     0.51983
H     -0.94930     1.85873     0.16259
