 36
-1364.978697925514
O      3.05389     1.45301    -0.40802
H      2.76741     0.74056    -0.99743
O      2.04129     2.44320    -0.63159
H      1.50110     2.38072     0.18289
O      1.23726    -1.01383     1.48795
H      2.11689    -0.92406     1.90274
O      0.42695    -0.25849     2.39462
H     -0.44614    -0.64193     2.22255
O     -2.75574    -0.32360    -1.88338
H     -2.16368     0.41456    -2.10525
O     -1.94177    -1.43327    -2.28086
H     -2.22901    -2.10650    -1.62754
O     -3.39556    -0.60025     0.69875
H     -3.39456    -0.50610    -0.27181
O     -1.99718    -0.58820     0.94784
H     -1.76222     0.35413     0.82301
O     -0.69630     1.34321    -2.36884
H      0.00219     0.87414    -1.85886
O     -0.76737     2.60511    -1.71605
H     -0.19839     3.16385    -2.25556
O      0.73615    -1.55962    -1.70399
H     -0.16142    -1.47453    -2.08212
O      0.88353    -0.29276    -1.07328
H      0.98505    -0.52850    -0.12175
O      0.34217     2.20796     1.42450
H      0.49408     1.42707     1.98937
O     -0.90244     1.84480     0.82629
H     -0.82704     2.25145    -0.06342
O      3.14255     1.01683     2.21541
H      3.23077     1.20300     1.25794
O      3.71427    -0.29240     2.26098
H      4.25312    -0.23936     3.05516
O     -1.10309    -3.62017     0.05880
H     -0.51921    -2.88373    -0.17845
O     -2.39831    -3.11902    -0.27067
H     -2.62470    -2.56146     0.49205
