 32
-1213.3090096837354
O      2.46421    -1.49529     1.23580
H      2.72569    -0.90435     0.50999
O      1.68175    -0.58524     2.01798
H      1.07767    -1.17906     2.49223
O      0.60637    -2.36825    -0.81229
H      1.26802    -2.45349    -0.11356
O     -0.46148    -1.79527    -0.05513
H     -0.80444    -1.10140    -0.66262
O     -1.09558     0.06155    -1.83242
H     -0.46595     0.36592    -2.50859
O     -1.57585     1.28907    -1.26488
H     -0.92850     1.39732    -0.53812
O     -0.85506    -1.10622     3.16769
H     -0.92583    -0.14201     3.12698
O     -1.85764    -1.51921     2.23898
H     -1.33843    -1.72634     1.43771
O      1.14949     0.48878    -3.38460
H      1.26138     0.23024    -4.30446
O      1.41372     1.89468    -3.41917
H      2.16142     1.91674    -2.80182
O      2.71713     1.36735    -0.99521
H      1.94542     1.54248    -0.42886
O      2.77436    -0.05972    -1.03280
H      2.15864    -0.28411    -1.75011
O      0.14446     1.14322     0.72048
H      0.70530     0.45086     1.13919
O     -0.61135     1.56643     1.86029
H     -1.52989     1.33566     1.59282
O     -3.08351     0.70086     1.43086
H     -2.93977    -0.19519     1.79413
O     -3.70407     0.39013     0.18028
H     -3.06455     0.77755    -0.44168
