 20
-758.3037906991456
O     -1.80742    -1.31051    -0.96962
H     -0.88456    -1.55809    -0.78465
O     -2.45672    -2.58073    -0.91120
H     -2.89402    -2.59527    -1.76786
O      2.73428     0.91925    -1.33986
H      2.59129     0.05452    -0.92980
O      2.94996     1.69130    -0.15850
H      3.57682     2.35162    -0.46801
O      0.34304     0.77644     1.50912
H     -0.62026     0.59325     1.57469
O      0.31939     1.55808     0.29758
H      1.27117     1.71123     0.16524
O      1.72082    -1.21122     0.37380
H      1.21142    -0.53895     0.88229
O      0.69465    -2.07634    -0.10979
H      0.65346    -2.75331     0.57441
O     -2.24116     0.51425     1.03329
H     -2.28135    -0.13128     0.30542
O     -2.54768     1.74018     0.36303
H     -1.65512     2.04164     0.14846
