 32
-1213.3071904096387
O      2.41932    -0.10947    -0.10627
H      2.67436     0.63214    -0.68430
O      2.80454     0.31594     1.20409
H      2.12414     0.96852     1.42583
O      0.06223    -1.16109    -0.81619
H      0.92067    -0.76759    -0.54432
O     -0.00329    -0.83307    -2.20240
H     -0.85889    -0.35123    -2.22622
O     -1.76132     2.06543    -2.05560
H     -0.89371     2.03044    -2.50212
O     -2.17417     0.69833    -2.13232
H     -2.59022     0.57805    -1.25566
O     -0.10296     1.57481     0.18291
H     -0.93566     2.02780    -0.02542
O      0.21199     1.99866     1.51502
H     -0.00563     1.17670     2.01847
O      1.61320     2.11979    -1.78652
H      0.96601     2.06317    -1.05796
O      0.81024     1.77360    -2.91777
H      0.86762     0.80433    -2.92359
O      1.32876    -2.30106     1.61453
H      2.27903    -2.45804     1.67730
O      0.82366    -3.47500     0.98213
H      0.61751    -3.12589     0.10320
O     -1.32032    -0.83958     3.08890
H     -1.68437    -1.02040     2.20854
O     -0.04133    -0.30345     2.75885
H      0.41703    -1.07528     2.36785
O     -2.88825     0.11337     0.36056
H     -3.65751     0.00367     0.92772
O     -2.23268    -1.14034     0.52904
H     -1.40568    -1.02330     0.00949
