 36
-1364.9759053094579
O      1.85426     3.06957     1.20230
H      1.41075     2.48737     1.83954
O      0.78903     3.88912     0.71864
H      0.48612     3.36526    -0.04243
O      2.80827     1.22794    -0.39818
H      2.47109     2.04626     0.04530
O      3.47247     0.60519     0.70360
H      4.40023     0.70477     0.46440
O     -1.89112    -1.90173    -0.98983
H     -2.53524    -1.65615    -1.67802
O     -1.75009    -3.31870    -1.14972
H     -1.12205    -3.49052    -0.43258
O     -1.72567    -0.25902     1.78396
H     -1.33810    -1.09145     1.46819
O     -1.60268     0.57265     0.64089
H     -2.43451     0.42407     0.15993
O     -3.31221    -0.29535    -2.73171
H     -4.25654    -0.19271    -2.87692
O     -3.07394     0.74582    -1.78280
H     -2.22035     1.10722    -2.10223
O     -0.03188     1.96169    -0.96177
H     -0.54846     1.42789    -0.32538
O     -0.54094     1.48440    -2.20251
H     -0.06807     0.62627    -2.26706
O      1.68466    -0.56314     2.37105
H      2.35264    -0.21203     1.75495
O      0.94568     0.62007     2.68850
H      0.03199     0.29622     2.68710
O      1.34339    -1.00624    -0.65942
H      1.80694    -0.13837    -0.67509
O      0.45745    -0.93392    -1.78601
H     -0.35565    -1.34298    -1.41339
O      0.03339    -2.60241     1.83639
H      0.74941    -2.01675     2.14700
O      0.60332    -3.21064     0.67751
H      0.94855    -2.43553     0.18911
