 40
-1516.645326971814
O      2.90927     1.50212     0.68461
H      2.00498     1.31288     1.01020
O      2.71028     2.66746    -0.11693
H      2.98097     2.34666    -0.99324
O     -0.83076     1.23329     1.21859
H     -0.66582     1.91071     0.52648
O      0.49035     0.74052     1.43184
H      0.45530    -0.12641     0.98950
O     -0.63722    -0.46296    -1.60943
H      0.21974    -0.12040    -1.94277
O     -1.53211     0.61926    -1.87662
H     -2.16616     0.55338    -1.13573
O     -0.81499    -1.77816     1.38776
H     -1.42865    -1.40562     2.06422
O     -1.70443    -1.97951     0.28224
H     -1.20797    -1.53504    -0.43583
O     -2.21475     0.53302     3.46415
H     -1.66394     0.83916     2.72044
O     -2.64340    -0.74772     2.98660
H     -3.41168    -0.52436     2.44010
O      0.00138     2.77207    -1.97477
H     -0.65479     2.04612    -2.00938
O      0.06861     2.99466    -0.56559
H      1.03313     2.96252    -0.39627
O      2.36368     1.68971    -2.64464
H      1.54055     2.21217    -2.63061
O      1.79642     0.38703    -2.48512
H      2.49240    -0.10195    -2.00537
O     -3.54084     0.63412    -0.12006
H     -4.36452     1.00853    -0.44633
O     -3.99564    -0.60764     0.42022
H     -3.19513    -1.15753     0.29293
O      1.13395    -4.32023    -0.38085
H      1.25560    -5.24902    -0.16069
O      1.31692    -3.69425     0.88655
H      0.42516    -3.35552     1.05826
O      2.00416    -1.15144    -0.11385
H      2.09708    -2.08345     0.15710
O      3.30676    -0.83365    -0.62317
H      3.50171    -0.06877    -0.05314
