 20
-758.3140762402268
O     -1.82655    -2.05623     1.06234
H     -2.31459    -1.56911     0.38394
O     -0.47987    -1.68526     0.76782
H     -0.35149    -0.92046     1.35706
O      3.11205     0.24603    -0.60132
H      2.29643    -0.18710    -0.92394
O      2.92974     0.15574     0.81170
H      3.57473    -0.51387     1.06202
O      0.70293     1.56409     0.60546
H      1.53245     1.10068     0.84848
O     -0.26042     0.94755     1.46092
H     -1.07496     1.10227     0.94148
O      0.71811    -0.73213    -1.41799
H      0.22685    -1.13813    -0.67429
O     -0.03694     0.45407    -1.66691
H      0.28515     1.01282    -0.93044
O     -2.54053    -0.01611    -0.85952
H     -1.65477     0.07103    -1.27590
O     -2.50785     1.10105     0.02725
H     -2.86763     1.81421    -0.50947
