 40
-1516.637539758395
O      0.85149     1.48844    -1.81030
H      1.47406     0.90379    -2.28601
O      1.28195     1.36584    -0.45521
H      0.75109     0.60426    -0.14902
O      2.38449    -0.26427     2.90296
H      1.95572     0.58141     2.69772
O      1.34326    -1.19354     2.61594
H      1.43385    -1.33368     1.64838
O     -0.58301    -0.13046     4.06126
H      0.13992    -0.62346     3.61054
O     -1.68354    -1.01013     3.79490
H     -2.40445    -0.38087     3.71026
O     -0.09252     2.72734     1.43129
H      0.45042     2.44175     0.67021
O      0.61170     2.10934     2.51346
H     -0.08023     1.55728     2.90833
O     -3.64667     1.75709     0.04424
H     -3.07299     1.46497    -0.69510
O     -2.78191     1.53373     1.16304
H     -2.15704     2.27369     1.10091
O      3.22157    -1.05225    -2.11507
H      4.08994    -0.64003    -2.15436
O      2.50335    -0.28489    -3.08067
H      1.98085    -0.98112    -3.51901
O     -2.11981     0.71169    -3.01592
H     -1.62102    -0.10872    -3.12588
O     -1.74909     1.00256    -1.66366
H     -0.82912     1.34060    -1.77046
O      0.42273    -2.06832    -0.71266
H     -0.23635    -2.11330     0.01104
O      1.51408    -1.44230    -0.03017
H      2.17773    -1.34459    -0.73747
O     -1.34805    -1.61082     1.19596
H     -1.38239    -1.62419     2.17303
O     -0.85135    -0.28412     0.99725
H     -1.67086     0.26162     0.94898
O     -0.26712    -1.35780    -3.16555
H     -0.04433    -1.62304    -2.24346
O      0.69788    -2.10113    -3.89911
H      0.17858    -2.38626    -4.65661
