 32
-1213.3221267583815
O      3.71631     0.72352     0.00760
H      3.50794    -0.00782     0.62737
O      3.71317     0.00162    -1.22384
H      4.62651     0.07618    -1.51179
O      0.35682    -1.98719     0.05724
H     -0.32812    -1.71659     0.70009
O     -0.32023    -1.76270    -1.17874
H      0.36521    -1.25406    -1.66631
O     -2.62543    -0.57347    -1.92266
H     -1.81642    -1.06651    -1.69198
O     -2.08224     0.67891    -2.35029
H     -2.52782     1.26872    -1.71326
O      0.79548     1.49232     0.90890
H      0.75892     1.29357    -0.05176
O     -0.58358     1.69500     1.22031
H     -0.68424     1.08540     1.97914
O      1.26766    -0.02065    -2.33189
H      2.15653     0.10520    -1.94603
O      0.52657     1.02861    -1.71888
H     -0.35783     0.91573    -2.12237
O      1.78844    -0.49553     2.31733
H      1.58706     0.30916     1.79999
O      2.54057    -1.23413     1.35921
H      1.83778    -1.58109     0.77507
O     -1.47283    -1.21124     1.82831
H     -2.23237    -0.67774     1.52343
O     -0.92117    -0.39718     2.85991
H     -0.00999    -0.73315     2.88922
O     -3.37579     0.19076     0.49537
H     -3.39202    -0.29956    -0.34919
O     -2.99153     1.47634     0.00286
H     -2.13445     1.60902     0.44614
