 32
-1213.3109783804855
O     -2.07226    -0.72611     0.78453
H     -1.23688    -1.05000     1.17633
O     -1.58495     0.05450    -0.31302
H     -2.29813    -0.02818    -0.98341
O      2.42154    -3.05839     0.72369
H      3.14625    -3.68382     0.80979
O      2.93461    -2.13185    -0.22952
H      2.13745    -1.98869    -0.76009
O     -1.82728     0.65097    -3.12330
H     -1.12735    -0.03141    -3.15580
O     -2.91403    -0.10785    -2.60717
H     -3.65279     0.25444    -3.10065
O     -0.05205     2.37111    -1.58673
H     -0.62498     1.95487    -2.24386
O      1.22797     1.83172    -1.95165
H      1.58110     1.69471    -1.04901
O      1.49122     1.33430     0.62877
H      1.37987     0.47924     1.09904
O      0.45169     2.15286     1.17619
H     -0.17635     2.16715     0.43536
O      0.51263    -0.63082    -2.74130
H      1.00330     0.19196    -2.53977
O      0.44651    -1.23853    -1.44681
H     -0.23291    -0.70807    -0.98267
O      0.01680    -1.43310     2.40109
H     -0.15849    -0.70874     3.04249
O      1.28319    -0.98273     1.91223
H      1.70514    -1.81374     1.60727
O     -0.45259     0.96680     3.38521
H     -0.05697     1.53718     2.69190
O     -1.85024     1.19722     3.21150
H     -2.03331     0.74158     2.37701
