 28
-1061.6442235045822
O      1.81477    -0.35227    -2.07836
H      2.57273    -0.28921    -1.47610
O      1.26851     0.95394    -1.85242
H      0.32427     0.80126    -2.01362
O      0.29520     0.32738     2.61938
H     -0.52584    -0.18875     2.63900
O      1.10785    -0.49381     1.77745
H      1.82290     0.12558     1.53653
O     -0.26570     1.97269     0.58610
H     -0.10321     1.54267     1.44686
O     -1.67911     1.76420     0.42203
H     -3.22467    -0.37945    -1.04864
O      0.72285    -2.49455    -0.83111
H      1.09164    -1.87184    -1.47992
O     -0.24709    -1.66458    -0.19874
H      0.27258    -1.22687     0.51656
O     -2.33179    -0.37931     1.87477
H     -2.23313     0.46985     1.39534
O     -2.92186    -1.20208     0.86708
H     -2.16889    -1.75819     0.62441
O     -1.51662     0.11732    -1.65116
H     -1.12902    -0.68405    -1.22769
O     -2.84752    -0.27587    -1.93450
H     -1.69630     1.34907    -0.46557
O      2.74426     1.33922     0.57986
H      2.12336     1.60487    -0.11997
O      3.50651     0.33840    -0.09804
H      4.36693     0.76623    -0.17524
