 32
-1213.3092513471322
O      1.30213    -0.77444     2.07915
H      0.87372    -0.75636     2.95905
O      1.67089     0.60790     1.90830
H      1.97971     0.59132     0.97554
O      0.54019    -2.16152    -2.68776
H      0.48177    -2.03287    -1.72783
O      1.17559    -0.91859    -3.04178
H      0.51161    -0.54194    -3.63895
O     -2.06381    -1.10944    -2.73806
H     -1.42797    -1.82188    -2.90143
O     -1.51510    -0.08621    -3.58437
H     -1.30217     0.60215    -2.93267
O     -0.39553     1.43276    -1.62621
H      0.00460     0.70273    -1.12482
O     -0.17870     2.53111    -0.73878
H     -0.71384     2.25606     0.04392
O      2.13182     0.51445    -0.69984
H      2.17041     0.19924    -1.61863
O      2.44756     1.90913    -0.80798
H      1.55003     2.29404    -0.77984
O     -1.33178    -1.23030     0.11835
H     -1.70852    -1.07282    -0.76214
O      0.05949    -1.31794    -0.20952
H      0.48984    -1.20345     0.67057
O     -0.32225    -0.51962     4.25176
H     -0.78493     0.26454     3.91420
O     -1.28281    -1.54224     3.99243
H     -1.46567    -1.85545     4.88386
O     -0.77287     1.52656     2.39554
H      0.15102     1.36144     2.11930
O     -1.48278     1.27512     1.17998
H     -1.42458     0.30909     1.04848
