 40
-1516.6444642452475
O     -2.07745     2.49273     2.09969
H     -1.17261     2.79079     2.30192
O     -2.16276     2.90245     0.72239
H     -2.01564     2.03368     0.30453
O      2.05207    -1.79192    -0.65291
H      1.73423    -1.41785     0.19407
O      1.64034    -3.15609    -0.58771
H      0.96434    -3.16620    -1.29524
O      1.53175     0.52904    -2.82741
H      0.60298     0.66809    -3.07510
O      1.65964    -0.87549    -3.07907
H      1.96041    -1.17569    -2.19731
O     -2.13899    -0.15387     1.56036
H     -2.27471     0.65908     2.08449
O     -1.50228     0.40247     0.41246
H     -0.56135     0.46833     0.68494
O     -1.53899     1.84208    -2.22554
H     -2.32983     2.09910    -2.71070
O     -1.18046     0.61875    -2.84281
H     -1.37812    -0.02349    -2.13940
O      1.30423     1.17982    -0.23329
H      1.61463     0.93207    -1.13528
O      0.86147     2.52897    -0.42397
H      0.02882     2.37355    -0.89516
O      0.50316     3.26074     2.16285
H      0.72838     3.14827     1.21717
O      1.45705     2.39062     2.76079
H      1.82642     2.94752     3.45204
O      0.10664    -3.39481     1.62516
H      0.67318    -3.49724     0.83794
O     -1.11068    -2.96134     1.01820
H     -1.28543    -2.11704     1.46536
O      0.53591    -0.13401     2.38170
H      1.03778     0.68738     2.51303
O      1.54025    -1.01061     1.87510
H      1.25439    -1.84233     2.27797
O     -0.35948    -2.81128    -2.32612
H      0.05254    -2.13311    -2.88031
O     -1.23929    -2.01639    -1.53144
H     -1.23310    -2.48696    -0.67434
