 36
-1364.9757038865444
O      0.80397     2.06403     2.97191
H      0.63207     2.56687     3.77211
O     -0.11817     2.66867     2.07035
H     -0.73788     1.92739     1.88618
O      1.17415    -1.67128     1.76321
H      0.98501    -1.97244     0.84875
O     -0.14347    -1.56300     2.30955
H     -0.46682    -2.48996     2.23144
O      2.89826     1.09784    -0.13212
H      2.56135     2.01364    -0.13129
O      1.63848     0.43732     0.01742
H      1.68220     0.01259     0.89008
O      1.22208     3.20543    -0.21077
H      0.78508     3.13145     0.66054
O      0.20451     2.67192    -1.06862
H      0.75060     2.21573    -1.73397
O     -1.63582     1.10078    -2.81082
H     -1.73242     1.98709    -3.18092
O     -2.95712     0.79187    -2.35577
H     -2.80145     0.78459    -1.40082
O     -1.18062     0.27453    -0.06051
H     -0.43130     0.88903    -0.20565
O     -1.50701     0.49413     1.31125
H     -1.07299    -0.28226     1.73986
O      1.57985     0.96581    -2.66844
H      2.26922     0.72687    -2.03196
O      0.70253    -0.15764    -2.53616
H     -0.17169     0.26387    -2.67030
O      0.59976    -2.19202    -0.80030
H      0.75443    -1.44883    -1.42435
O     -0.83350    -2.22499    -0.74033
H     -1.01299    -1.32318    -0.39908
O     -0.87842    -4.08473     1.99906
H     -0.24796    -4.80082     1.86746
O     -1.75029    -4.20807     0.87285
H     -1.39579    -3.51316     0.28055
