 36
-1364.9706507842957
O     -2.10372     0.79272    -0.96684
H     -2.72930     0.06935    -0.71931
O     -1.02417    -0.00842    -1.47694
H     -0.47067     0.67057    -1.92028
O     -4.06534    -1.30257     0.97052
H     -3.61887    -0.52341     1.35644
O     -3.36562    -1.41098    -0.27455
H     -2.65426    -2.03519    -0.06852
O     -0.58521    -1.60286     0.55933
H     -0.63285    -0.92097    -0.15283
O      0.64408    -2.26929     0.28403
H      1.14328    -2.10081     1.09788
O      1.86472    -0.96180    -1.68950
H      1.42380    -1.59627    -1.08614
O      3.24013    -1.34672    -1.66787
H      3.38398    -1.55760    -0.72763
O     -1.23768     2.95186     1.33624
H     -1.54107     3.86438     1.39309
O     -0.73520     2.88202     0.00497
H     -1.30749     2.17752    -0.37032
O     -1.73976     0.06406     2.81369
H     -1.37735    -0.59816     2.20371
O     -2.64839     0.74692     1.95467
H     -2.15273     1.55813     1.74131
O      0.69350     1.71998    -2.45268
H      0.74800     2.63276    -2.75421
O      0.86993     0.96548    -3.65193
H      1.40912     0.24791    -3.28771
O      2.97045    -1.35185     1.81537
H      2.79586    -0.48608     1.38095
O      3.86600    -1.97840     0.90371
H      4.72713    -1.77797     1.28598
O      0.93369     0.82915     1.26405
H      0.60758     1.73910     1.14107
O      2.18858     0.84166     0.57114
H      1.94405     0.56309    -0.32652
