 24
-909.9823959380734
O      0.31002    -2.03130    -0.98183
H      0.32285    -2.08875     0.00270
O     -0.72008    -1.08224    -1.27325
H     -1.18565    -0.96417    -0.41858
O     -1.78675    -0.21593     0.99867
H     -2.32263     0.57472     0.75928
O     -0.79773     0.39597     1.82545
H     -0.25798     0.87277     1.16314
O      3.31726    -0.88616    -0.68085
H      4.06497    -0.81069    -1.28266
O      2.27243    -0.29185    -1.44368
H      1.64441    -1.03954    -1.53068
O     -0.12308     1.52020    -1.36073
H     -0.28748     0.56979    -1.52727
O      0.66571     1.44490    -0.16653
H      1.40635     0.88499    -0.46853
O      1.80329    -1.57545     2.06574
H      2.24546    -1.49224     1.21321
O      0.48115    -1.93733     1.67356
H     -0.03455    -1.15853     1.97313
O     -2.67871     2.41231    -0.95816
H     -1.73206     2.17416    -1.00684
O     -3.00986     2.01721     0.37039
H     -3.03475     2.85154     0.84941
