 36
-1364.9751753581118
O      3.05983    -0.67935     2.43932
H      3.43059    -0.02083     3.03151
O      1.96010     0.04803     1.90186
H      1.17903    -0.39044     2.33377
O     -2.32765    -1.63747     1.70035
H     -2.84528    -2.43443     1.84856
O     -2.01172    -1.76666     0.32224
H     -1.03200    -1.62826     0.30888
O      1.97175     1.28211    -0.48214
H      1.93245     0.83437     0.38482
O      0.80428     2.11136    -0.37237
H      0.59349     2.25417    -1.31228
O     -2.63198     0.02830    -1.69593
H     -2.45743    -0.60904    -0.98473
O     -1.82546     1.14328    -1.30976
H     -2.02315     1.26241    -0.35765
O      0.14430    -1.25166    -2.92840
H      1.00752    -0.88127    -3.19307
O     -0.70953    -0.27214    -3.54036
H     -1.48793    -0.27262    -2.94993
O     -0.14842    -0.97249     3.09702
H     -0.97624    -1.25196     2.66589
O     -0.59181     0.04798     3.99093
H     -0.52238     0.81760     3.40060
O      1.94399     0.69122    -3.07657
H      2.20860     0.76607    -2.14146
O      0.94702     1.73600    -3.08884
H      0.17579     1.21026    -3.37493
O     -1.98573     1.41858     1.33432
H     -2.22687     0.56476     1.71344
O     -0.64320     1.55567     1.79579
H     -0.16263     1.76674     0.96288
O      1.62269    -2.00495    -0.20993
H      2.17445    -1.48846     0.39066
O      0.47873    -1.15318    -0.25440
H      0.33667    -1.06985    -1.22400
