 40
-1516.6451243729232
O      1.82673    -1.33363    -0.95890
H      1.05775    -1.05815    -0.41209
O      2.37717    -0.09030    -1.38321
H      1.65419     0.28584    -1.92953
O      0.05908     0.66360     3.36924
H      0.45559     0.12034     4.05803
O      0.97281     1.75707     3.27643
H      1.44002     1.53237     2.44827
O      2.33551     2.73197     0.32867
H      1.67399     3.23948     0.81741
O      2.01981     1.41901     0.78879
H      2.38965     0.84103     0.07778
O     -1.99085     1.07770     1.06284
H     -1.88163     1.87737     1.60586
O     -2.45478     1.60293    -0.17754
H     -1.63363     1.95084    -0.58435
O     -0.30928    -2.81740    -2.64217
H      0.09436    -3.18333    -3.43445
O     -0.81285    -3.97216    -1.97074
H     -0.02601    -4.18268    -1.40599
O     -0.10631     2.15362    -1.36860
H      0.64525     2.09805    -0.75757
O      0.15915     1.08484    -2.28313
H     -0.65639     0.53453    -2.23444
O     -1.04700     3.46332     2.19040
H     -0.37026     3.16761     2.82090
O     -0.23723     3.98415     1.13717
H     -0.48429     4.91536     1.14068
O     -0.20798    -0.89120     0.65722
H     -0.84416    -0.21046     0.97352
O     -0.99620    -2.08677     0.68981
H     -1.61508    -1.89978    -0.04515
O      0.92697    -4.06772     0.74968
H      0.19207    -3.43001     0.71725
O      1.42028    -4.02611    -0.58242
H      1.73815    -3.11046    -0.67469
O     -2.55863    -0.87888    -1.10414
H     -2.68235     0.04035    -0.78552
O     -1.84272    -0.66261    -2.32309
H     -1.37274    -1.52019    -2.42376
