 16
-606.638633903302
O     -2.22501    -0.36733     1.12994
H     -3.12320    -0.03990     1.23435
O     -1.48122     0.85296     1.12765
H     -0.63514     0.53405     1.48811
O      1.64849    -0.37051     0.91796
H      1.43529     0.35526     0.29825
O      0.91736     0.08394     2.06806
H      1.06398    -0.64603     2.67661
O      0.72923     1.27866    -0.99318
H      0.09006     0.62347    -1.34586
O      1.75533     1.25203    -1.98369
H      1.73483     2.16353    -2.28790
O     -0.94667    -0.80741    -1.20356
H     -1.46605    -0.75332    -0.37784
O     -0.14025    -1.97090    -0.99681
H      0.57321    -1.62075    -0.44417
