 36
-1364.975498788701
O      1.95729     2.48274     1.70515
H      1.81968     3.34469     1.30381
O      0.62029     2.20445     2.14839
H      0.66767     1.22812     2.24598
O     -1.42618     1.48769    -0.17073
H     -0.52169     1.76090    -0.44162
O     -1.92399     0.83285    -1.33500
H     -1.53346    -0.06393    -1.24173
O      0.57099    -1.31065    -1.88468
H      0.41095    -0.61895    -2.55285
O     -0.75775    -1.56859    -1.42787
H     -0.63266    -2.35243    -0.85212
O      0.94326     2.33065    -1.09671
H      0.83821     2.45996    -2.05110
O      1.96437     1.32661    -1.05269
H      2.27461     1.44083    -0.14229
O      0.60765    -0.45353     2.21040
H      1.26629    -0.78361     1.54003
O     -0.61888    -0.86715     1.57867
H     -1.26880    -0.26007     2.01830
O     -2.03969     1.02013     2.76427
H     -1.49833     1.81432     2.64691
O     -3.12309     1.21876     1.85117
H     -2.63854     1.30709     1.00631
O      0.00702     0.54830    -3.78921
H     -0.32579     0.40776    -4.68106
O     -0.58681     1.79355    -3.42938
H     -1.20728     1.49702    -2.72845
O      2.15119    -1.33114     0.29724
H      1.67377    -1.33343    -0.56203
O      2.57298    -2.69040     0.40681
H      1.81228    -3.06845     0.87327
O      0.07665    -3.39910     1.35046
H     -0.27808    -2.49525     1.50747
O     -0.59523    -3.73257     0.13722
H     -1.24681    -4.37961     0.42491
