 36
-1364.9808653624787
O      2.92827    -0.00012     0.54442
H      2.96048     0.96430     0.68893
O      3.49468    -0.10334    -0.76466
H      2.97834    -0.85311    -1.11794
O     -2.27037    -0.89410    -1.69343
H     -2.73890    -0.98878    -2.52817
O     -1.63715    -2.16812    -1.54753
H     -0.72587    -1.97032    -1.87965
O     -1.86682    -2.55665     1.85966
H     -2.31243    -1.69445     1.73398
O     -2.63628    -3.43654     1.04674
H     -2.32422    -3.19985     0.16268
O      1.79633    -2.04417    -1.60694
H      1.31240    -2.29399    -0.79275
O      0.76539    -1.38918    -2.34639
H      0.85516    -0.45492    -2.05730
O     -1.51830     0.53832     0.71862
H     -0.80000    -0.13777     0.77703
O     -2.72367    -0.20861     0.84037
H     -2.83407    -0.47674    -0.08923
O     -0.51634     2.85146     1.63638
H     -1.01091     2.05309     1.35358
O     -1.43931     3.89785     1.33720
H     -1.60410     4.24910     2.21687
O     -0.40341     1.81819    -1.75327
H     -1.04193     1.56029    -1.07221
O      0.74211     1.07642    -1.32575
H      1.30571     1.78100    -0.94744
O      1.72442     3.11265     0.14396
H      0.94822     3.17661     0.74034
O      2.73006     2.66575     1.05230
H      3.40970     3.33331     0.92239
O      0.54935    -1.01176     1.13969
H      1.46868    -0.73499     0.90392
O      0.51747    -2.38455     0.71736
H     -0.30891    -2.65609     1.18145
