 36
-1364.976732683198
O     -0.57897     1.20009     0.87584
H     -0.65323     0.45340     1.50438
O      0.32911     2.07370     1.54368
H      0.52890     2.67830     0.80293
O     -0.61341    -1.11565     2.21627
H      0.30862    -1.42099     2.05140
O     -1.29345    -2.27232     2.67510
H     -1.05342    -2.92022     1.98421
O      1.91310    -1.62773     1.49022
H      2.40209    -0.82244     1.18743
O      1.95592    -2.49329     0.34663
H      1.82578    -1.86833    -0.38437
O      0.54498    -0.72857    -1.53040
H     -0.22293    -1.30940    -1.39213
O     -0.04735     0.55637    -1.61398
H     -0.27017     0.75764    -0.67149
O     -1.17553     3.24296    -2.39163
H     -1.14016     3.59718    -3.28724
O     -2.24147     2.29838    -2.46041
H     -1.73504     1.47030    -2.45202
O      1.84155     2.39395    -1.47551
H      1.22304     1.70251    -1.78115
O      0.97383     3.27637    -0.75369
H      0.20496     3.33710    -1.34526
O     -2.87866    -1.40490     0.30139
H     -2.43285    -1.13048     1.11976
O     -2.69779    -0.26619    -0.53420
H     -3.58563     0.10580    -0.57585
O      2.83513     0.57205     0.38344
H      2.67486     1.31162    -0.23841
O      2.90392     1.19984     1.66642
H      1.96726     1.43732     1.79832
O     -0.43799    -3.69761     0.56902
H      0.49876    -3.41852     0.52392
O     -0.95406    -3.06189    -0.60595
H     -1.78372    -2.69263    -0.26077
