 24
-909.9780170017333
O      1.12467    -1.18720     1.62243
H      1.87785    -1.08578     1.01236
O      0.20291    -1.94847     0.82241
H     -0.62661    -1.64993     1.23313
O     -0.03667    -0.68113    -1.56315
H      0.20253    -1.21183    -0.77341
O      0.95779     0.35201    -1.55811
H      0.51224     1.07024    -1.06469
O      3.63137    -1.69905    -0.87620
H      4.56117    -1.46116    -0.83348
O      3.04585    -0.59135    -0.20050
H      2.44069    -0.24067    -0.88895
O     -1.28643     3.06368    -0.48858
H     -0.90030     3.94436    -0.50215
O     -0.15669     2.30013    -0.08925
H     -0.44877     1.91577     0.76498
O     -1.56269    -0.23896     1.88671
H     -1.96906     0.04500     1.04308
O     -0.56286     0.77854     2.08251
H      0.23175     0.20953     2.07283
O     -2.36058     0.21835    -0.62270
H     -1.57424    -0.05412    -1.15048
O     -3.24416    -0.87703    -0.85019
H     -3.98020    -0.41849    -1.26397
