 32
-1213.3117365185444
O     -0.42190    -2.72080     0.81183
H     -0.21159    -2.01907     1.46363
O     -1.68684    -2.28062     0.32613
H     -1.43620    -1.69248    -0.42226
O     -0.80850     0.27493    -2.51851
H     -0.83407     1.01185    -1.87943
O     -0.71624    -0.85268    -1.65450
H      0.17164    -1.20301    -1.85166
O      2.25575     0.03448     0.60878
H      2.44762    -0.79005     0.13817
O      1.40201     0.65291    -0.36073
H      0.61000     0.96403     0.14322
O     -0.72456     1.87317     0.53146
H     -1.54583     1.34911     0.64174
O     -0.88480     2.37135    -0.79369
H     -0.08027     2.93111    -0.88567
O      2.26452     2.77952    -1.76425
H      2.03385     1.96203    -1.27707
O      1.38160     3.71726    -1.13516
H      1.95880     4.17472    -0.51483
O      1.93203    -2.68119    -0.54002
H      1.05554    -2.78580    -0.11401
O      1.55503    -2.30247    -1.85861
H      1.68496    -3.11194    -2.36125
O      0.44558    -0.77396     2.38613
H      1.22320    -0.40465     1.91435
O     -0.08204     0.38112     3.02866
H     -1.02818     0.22253     2.92311
O     -2.76884    -0.51990     1.99032
H     -2.46205    -1.32210     1.51195
O     -2.90047     0.36951     0.88244
H     -3.85333     0.44967     0.77752
