 36
-1364.972038584861
O      1.26134     3.05701    -1.08557
H      0.66683     2.34022    -1.36984
O      1.70153     2.58070     0.18531
H      2.40855     1.94694    -0.04897
O     -2.34457    -0.91967     0.09792
H     -1.63214    -0.32932     0.43464
O     -3.39684    -0.60630     1.00415
H     -3.53914     0.32478     0.78131
O      0.73759    -2.03426    -1.80232
H      0.28296    -2.71741    -1.27506
O      1.18769    -1.18264    -0.74858
H      0.48279    -0.50589    -0.71617
O     -0.49915     1.04271    -1.71976
H     -1.37863     1.35394    -1.42043
O     -0.77303     0.52357    -3.01390
H     -0.43341    -0.37710    -2.91229
O      3.87302    -0.06004     0.73128
H      4.71382    -0.39626     0.40646
O      3.26038     0.43911    -0.45598
H      2.59898    -0.26198    -0.65124
O     -0.49352     1.86946     1.43867
H      0.29102     2.25229     0.97099
O     -0.35298     0.49518     1.05943
H      0.40065     0.16260     1.61104
O     -2.99402     2.09387     0.47773
H     -2.08879     2.11960     0.85520
O     -2.71477     2.23875    -0.91194
H     -3.02737     3.12868    -1.09945
O      1.60400    -2.04920     2.30007
H      0.77613    -2.21358     1.82805
O      1.71413    -0.63590     2.22845
H      2.56925    -0.51969     1.76777
O     -1.11116    -3.13396     0.96139
H     -1.65929    -2.37974     0.61593
O     -0.67303    -3.78539    -0.23431
H     -1.42741    -4.33387    -0.47010
