 28
-1061.6440199502094
O     -0.09092    -2.70757    -0.04534
H      0.87856    -2.65921     0.08127
O     -0.50246    -2.22482     1.23829
H     -1.24365    -1.62961     1.01509
O      1.78024    -1.14677     1.91143
H      0.85912    -1.47259     1.89194
O      2.25859    -1.77053     0.71380
H      2.38908    -0.99555     0.13475
O     -2.17102     0.73521     1.55572
H     -2.29284     1.35843     0.79658
O     -2.49363    -0.49136     0.89810
H     -0.40383     2.31269    -0.23153
O      0.54725     1.22508     0.78269
H     -0.13378     0.93968     1.41356
O      1.67218     1.49784     1.61033
H      1.89447     0.58319     1.87307
O     -1.74504    -0.36118    -2.15151
H     -1.84635    -0.50486    -3.09817
O     -0.38948    -0.75022    -1.95806
H     -0.45812    -1.50750    -1.34029
O     -2.19008     1.97625    -0.75681
H     -1.95564     1.26376    -1.37619
O     -1.04075     2.81919    -0.76830
H     -3.40410    -0.63405     1.17681
O      2.10172     0.91534    -2.01588
H      1.18630     0.60799    -1.96148
O      2.63438     0.40763    -0.79253
H      2.54630     1.16600    -0.19375
