 28
-1061.643585867478
O      1.42246     0.16605    -2.28528
H      1.83872    -0.69806    -2.13627
O      2.15439     0.93013    -1.32082
H      1.43317     1.29253    -0.75340
O      0.07139    -1.64533     1.76327
H     -0.80665    -1.81050     1.36972
O      0.67935    -0.96916     0.65346
H      1.53046    -1.42570     0.55203
O     -0.41437     0.79666     2.79925
H     -0.10541    -0.10941     2.59725
O     -1.82526     0.64388     2.66134
H      0.01642     1.77794     1.15847
O     -1.18851    -0.30502    -1.82546
H     -0.26870     0.00516    -1.94601
O     -1.92990     0.91749    -1.73409
H     -2.52539     0.66312    -1.00530
O     -2.85516    -0.34620     0.41207
H     -2.42221     0.01915     1.20417
O     -2.17946    -1.59829     0.25567
H     -1.73143    -1.41633    -0.59174
O     -0.62238     2.85606    -0.28361
H     -1.03038     2.26449    -0.94022
O      0.37203     2.00534     0.28318
H     -2.12001     0.58252     3.57529
O      3.46278    -1.04423    -0.13558
H      3.18540    -0.15681    -0.44009
O      2.86231    -1.83166    -1.17275
H      3.63763    -2.24288    -1.57074
