 40
-1516.6426199081284
O      2.26143     1.93390     0.15026
H      2.50507     1.02938     0.41991
O      1.42995     2.40115     1.20815
H      0.53827     2.28978     0.83713
O      1.03249    -1.85918    -1.16589
H      1.56055    -1.77420    -0.34042
O      0.61027    -0.52133    -1.39530
H     -0.25469    -0.70027    -1.83100
O     -1.42402     1.67224     0.77163
H     -1.30889     1.13411     1.56679
O     -1.89623     0.66975    -0.13377
H     -2.07408     1.20966    -0.93592
O      0.61293     1.18633     3.78054
H      1.20745     1.64979     3.17079
O      0.08643     0.22551     2.85909
H     -0.12098    -0.53801     3.42312
O     -1.67136     2.34659    -2.21723
H     -0.79906     2.77119    -2.06468
O     -1.58844     1.93889    -3.59187
H     -0.63150     1.76992    -3.66766
O      0.91866     2.84391    -1.96263
H      1.55587     2.60332    -1.25424
O      1.01078     1.73498    -2.86500
H      0.93656     0.96163    -2.27152
O      2.41485    -0.55374     1.75223
H      1.49573    -0.36443     2.01967
O      2.31240    -1.85472     1.16984
H      1.88778    -2.37559     1.88279
O     -1.24001    -2.71836    -0.13148
H     -0.38313    -2.66293    -0.59441
O     -1.02619    -1.66009     0.79755
H     -1.38167    -0.87334     0.32298
O     -0.34005    -2.61871     3.20715
H     -0.56109    -2.46544     2.26481
O      0.98073    -3.13437     3.10481
H      0.86176    -4.05898     3.33887
O     -1.68275    -1.14685    -2.53090
H     -2.04104    -1.81512    -1.92697
O     -2.83287    -0.30750    -2.74579
H     -2.42563     0.45466    -3.19381
