 32
-1213.3039710974601
O      1.00346    -1.90903    -1.45271
H      0.03324    -1.80906    -1.36664
O      1.25175    -3.00339    -0.57860
H      1.95887    -3.46067    -1.04152
O      0.73977    -2.25119     1.95845
H      1.10280    -2.47536     1.08128
O      1.37796    -1.02569     2.28671
H      0.74871    -0.36025     1.96928
O     -0.24916     0.91901    -2.87926
H     -0.89275     0.59696    -2.20981
O     -0.15256    -0.19489    -3.75676
H     -0.49701     0.19307    -4.56572
O      1.60696     3.31599     0.27277
H      1.86077     2.67063    -0.41616
O      0.21369     3.47081    -0.03255
H      0.08126     4.41293     0.10581
O     -1.68770     0.01663    -0.79467
H     -1.20196     0.39541    -0.02394
O     -1.50319    -1.40358    -0.67964
H     -1.76528    -1.57442     0.24483
O      2.07022     1.37919    -1.54337
H      1.23417     1.27826    -2.04038
O      1.90074     0.45695    -0.46274
H      1.68952    -0.38057    -0.91795
O     -0.46259     1.23634     1.21051
H     -0.14933     2.09260     0.82568
O     -1.74564     1.55589     1.74412
H     -1.94147     0.71940     2.19266
O     -2.10021    -0.86526     2.93702
H     -2.88891    -1.21063     3.36115
O     -1.85940    -1.87637     1.96679
H     -0.91246    -2.08644     2.14691
