 32
-1213.3105797608287
O      3.52965    -1.16846     0.67634
H      2.93031    -1.59970     0.04814
O      2.84256     0.05959     0.92276
H      2.83530     0.47633     0.03556
O     -1.36406    -1.56210     0.39676
H     -0.89702    -1.46120     1.24242
O     -0.43791    -0.89252    -0.45857
H     -0.98865    -0.26669    -0.98249
O     -1.42016     1.05442    -2.03755
H     -0.53745     1.45436    -2.10925
O     -2.08089     2.02170    -1.21584
H     -2.79736     1.48350    -0.81337
O     -0.47529     2.15563     0.97624
H     -1.15073     2.34491     0.30361
O     -1.22853     1.33653     1.88506
H     -0.50398     0.80452     2.26549
O      1.12718     1.70301    -1.44919
H      0.93480     1.69012    -0.49613
O      2.34227     0.96488    -1.53025
H      2.08327     0.18608    -2.05913
O      1.78433    -1.93988    -1.36288
H      0.94067    -1.62021    -0.98058
O      1.65647    -1.36950    -2.66187
H      2.12100    -2.01513    -3.20226
O      0.40841    -1.59180     2.42043
H      0.50672    -1.96867     3.30007
O      0.80689    -0.23934     2.63933
H      1.57737    -0.15799     2.03159
O     -3.89932    -0.73917     0.11586
H     -3.00051    -1.11608     0.14010
O     -3.64555     0.63393     0.41507
H     -3.05301     0.59392     1.18039
