 40
-1516.6446621769771
O      2.14147     2.92487     0.78039
H      2.28678     1.95811     0.86765
O      1.76548     3.28707     2.09535
H      2.42319     3.95921     2.28602
O      2.80928    -0.63370    -0.32265
H      2.57197    -0.08707    -1.09840
O      2.48906     0.25771     0.74797
H      1.98848    -0.33610     1.35939
O     -0.50763     2.68956    -0.77679
H     -1.04154     2.25911    -1.47027
O      0.70249     3.01015    -1.47229
H      1.26920     3.18682    -0.69765
O     -0.35213     1.15672     1.39163
H     -0.25916     1.87880     0.73497
O     -1.70162     0.74711     1.14120
H     -1.64707     0.60322     0.17225
O     -1.58707     0.06887    -1.44501
H     -2.28171    -0.58803    -1.64935
O     -1.61263     0.96614    -2.55467
H     -0.77718     0.67215    -2.97320
O      0.79464    -0.05375    -3.07615
H      0.77451    -0.86763    -2.53484
O      1.80766     0.70282    -2.42018
H      1.35562     1.53962    -2.19510
O      0.63957    -0.27938     3.42179
H      0.28059     0.43169     2.85775
O      1.02361    -1.21285     2.40728
H      0.22888    -1.77025     2.32957
O      0.41259    -2.28432    -1.63924
H     -0.50561    -2.53590    -1.46625
O      1.02189    -2.65120    -0.39724
H      1.75240    -1.99928    -0.35530
O     -1.39462    -2.38851     2.59452
H     -1.71134    -2.28727     3.49687
O     -2.40189    -1.73871     1.83092
H     -2.07425    -0.80858     1.75826
O     -3.41781    -1.91465    -1.27876
H     -3.81874    -2.60117    -1.81863
O     -2.29359    -2.60803    -0.74727
H     -2.36515    -2.38507     0.20485
