 32
-1213.3073295057393
O      2.91124     1.11824     2.49555
H      3.22901     1.78326     3.11259
O      2.64955     1.90313     1.33891
H      1.66644     1.93905     1.31143
O     -1.78505    -1.81963     0.15398
H     -2.12401    -1.96846    -0.73970
O     -1.25702    -3.10201     0.52367
H     -0.41787    -2.80820     0.89959
O     -2.36861    -0.01542    -2.48998
H     -2.77662     0.63413    -3.07038
O     -3.48405    -0.64199    -1.86307
H     -3.56477    -0.08655    -1.04838
O      0.05545     2.00947     0.66697
H      0.07741     1.76191    -0.28345
O     -0.69466     0.93920     1.24578
H     -0.10685     0.16560     1.12227
O      3.14842     1.07112    -1.19913
H      3.11907     1.36344    -0.26793
O      3.63321    -0.26251    -1.05440
H      4.48128    -0.20571    -1.50370
O      0.49467     1.06111    -1.78602
H      1.46952     1.01547    -1.78029
O      0.14901    -0.32317    -1.72951
H     -0.79670    -0.27382    -1.96363
O      0.98434    -1.10989     0.84331
H      1.06006    -1.13694    -0.12619
O      2.20361    -1.65831     1.32152
H      2.66089    -0.84919     1.58842
O     -3.74846    -0.30249     1.17156
H     -3.09871    -1.00098     0.98477
O     -3.22923     0.74440     0.35679
H     -2.32397     0.88008     0.71502
