 32
-1213.3075739253334
O      2.17540     0.64166     2.41354
H      1.21415     0.74270     2.23785
O      2.23471    -0.69115     2.89996
H      2.48147    -0.57077     3.82217
O      1.17442    -2.53876     1.29189
H      1.50881    -1.79669     1.82466
O     -0.24272    -2.37130     1.40564
H     -0.50391    -2.79953     0.56445
O     -1.03880    -0.59089    -1.88653
H     -0.24541    -0.04235    -1.75914
O     -1.71835     0.06270    -2.94710
H     -2.31499     0.62194    -2.43007
O     -0.24653     2.62697    -1.86150
H     -1.16356     2.69536    -1.56561
O      0.42338     2.56996    -0.59600
H      1.23828     2.10194    -0.82864
O      1.52278    -0.03286    -0.55157
H      1.79227    -0.89536    -0.90745
O      2.76870     0.62774    -0.30496
H      2.74775     0.66926     0.66505
O     -2.77986     1.61747    -0.63676
H     -2.31575     1.03439     0.00528
O     -3.41941     2.55346     0.22696
H     -4.34309     2.31453     0.10663
O      1.16985    -2.78544    -1.30831
H      1.43442    -2.91440    -0.38170
O     -0.23865    -2.99942    -1.14114
H     -0.59774    -2.18703    -1.54458
O     -1.20317     0.15033     0.99110
H     -0.75331    -0.71162     1.12979
O     -0.29442     1.10827     1.55278
H     -0.14522     1.69961     0.78540
