 24
-909.9680121518055
O     -1.17446    -2.62966     1.15820
H     -0.48759    -2.43379     1.80796
O     -1.12606    -1.42399     0.40260
H     -0.94158    -1.74000    -0.50202
O     -0.14319    -0.27962    -2.17300
H     -0.84281     0.25350    -1.72102
O     -0.72973    -1.58356    -2.21328
H     -1.19310    -1.58172    -3.05683
O      1.58985    -1.98006     2.22818
H      1.74093    -1.84477     1.27850
O      1.72472    -0.64008     2.70913
H      2.54877    -0.69444     3.20371
O     -1.87574     1.29709    -0.92584
H     -1.47746     2.05527    -0.46970
O     -2.73245     0.74440     0.07928
H     -2.21768    -0.03988     0.33718
O      2.25843     0.53899     0.06624
H      2.01106     0.43950     0.99627
O      1.93479    -0.76805    -0.41896
H      1.26251    -0.57474    -1.09748
O      0.30786     2.69135     0.22007
H      0.94029     2.10079    -0.21162
O     -0.04942     3.51726    -0.89521
H     -0.23252     4.34506    -0.44255
