 28
-1061.6417493212102
O     -1.40616    -0.40530    -2.45821
H     -0.51088    -0.08066    -2.21815
O     -1.55298    -1.53358    -1.58652
H     -1.79202    -1.10363    -0.74782
O      0.72747     0.66979    -1.26037
H      0.39356     0.54186    -0.34671
O      0.53201     2.06955    -1.42404
H     -0.43312     2.16163    -1.33049
O      1.28354    -1.80974     2.77644
H      1.01829    -2.02492     1.85770
O      0.28860    -0.83799     3.10464
H      2.37728    -1.47074     0.04519
O     -0.64264     0.43465     0.98245
H     -0.30830    -0.06902     1.75873
O     -1.89119    -0.21360     0.73551
H     -2.41683     0.53908     0.42775
O     -2.12679     2.54144    -1.29563
H     -2.54918     3.14984    -1.91001
O     -3.00414     1.42177    -1.32007
H     -2.49968     0.79874    -1.88910
O      0.66357    -2.17101     0.20302
H      0.16598    -2.09996    -0.62904
O      2.01015    -2.32544    -0.22573
H     -0.23769    -1.29056     3.77241
O      3.17448     1.31536     0.34153
H      2.46024     1.57238    -0.25662
O      2.47363     0.35098     1.14612
H      2.63348     0.64057     2.05297
