 16
-606.6416165867379
O     -1.76475     1.04185     0.77342
H     -2.39473     1.76943     0.74265
O     -0.55172     1.72916     1.11382
H     -0.12060     1.75158     0.23486
O      1.90429    -0.49980     1.79260
H      2.24349    -1.26686     2.26144
O      0.53265    -0.88130     1.65052
H      0.09084    -0.03754     1.82220
O     -1.05045     0.53516    -1.74821
H     -1.42961     0.46026    -0.85972
O      0.17936     1.20340    -1.41633
H      0.75071     0.41234    -1.31336
O      0.05548    -2.07856    -1.48391
H     -0.46614    -1.42716    -1.97272
O      1.09218    -1.23227    -0.96903
H      0.91854    -1.26576    -0.00900
