 36
-1364.9721934464112
O      2.86143     1.94527     1.58192
H      3.39691     2.33677     2.27795
O      2.99977     0.55257     1.85073
H      3.45830     0.24515     1.05395
O     -2.31494     0.41486     0.86693
H     -2.31126    -0.55553     0.78034
O     -3.40434     0.82420     0.03999
H     -2.94367     1.43066    -0.55370
O     -0.76161    -1.79039     1.77210
H     -0.42492    -2.49649     1.19620
O      0.29591    -0.84485     1.58685
H      0.10001    -0.17416     2.26256
O      3.13340    -2.18493    -0.83727
H      3.46605    -2.46243    -1.69771
O      3.50552    -0.80847    -0.79600
H      2.64075    -0.36508    -0.93374
O     -2.79639    -1.14493    -1.83336
H     -3.54448    -0.66265    -1.46733
O     -2.51143    -1.97558    -0.69329
H     -1.68952    -2.41690    -0.97853
O      0.19200     2.57970     1.17209
H      1.12233     2.37360     1.36519
O     -0.49519     1.86745     2.20355
H     -1.24362     1.49151     1.70197
O      0.24861    -0.11610    -1.68662
H     -0.50839     0.49010    -1.58794
O      1.10123     0.34734    -0.63554
H      0.72409    -0.09411     0.16711
O     -1.13657     2.35157    -1.14123
H     -0.63035     2.54782    -0.31689
O     -1.56866     3.64991    -1.54577
H     -1.02088     3.77939    -2.32401
O      0.60993    -3.01500    -0.17743
H      1.53256    -2.76040    -0.34007
O     -0.01810    -2.76519    -1.44019
H      0.18753    -1.82306    -1.60752
