 40
-1516.643351292697
O      3.46168    -0.58981     0.70171
H      3.30955    -0.99217     1.57906
O      3.04779    -1.65631    -0.15807
H      2.54284    -1.18196    -0.85661
O     -0.68072    -0.64472     0.95414
H     -1.07135     0.14880     1.39077
O     -1.83172    -1.37931     0.54062
H     -1.94909    -1.03918    -0.36837
O     -1.10897     2.59184     1.17721
H     -0.17318     2.40651     1.40174
O     -1.79879     1.59152     1.94674
H     -2.66594     1.63480     1.50642
O      1.91566     1.57343     0.32557
H      2.55844     0.85029     0.48850
O      1.45102     1.92444     1.62995
H      1.49893     1.08619     2.12371
O     -3.03299     2.02988    -1.08102
H     -2.16731     2.29518    -0.72034
O     -3.81377     1.89593     0.10493
H     -4.38541     2.66885     0.04406
O     -0.28872     1.54952    -1.41395
H      0.45686     2.00058    -0.98687
O     -0.30037     2.10784    -2.72970
H     -0.67194     1.33031    -3.18268
O     -2.32143    -0.44210    -1.96590
H     -2.65254     0.46102    -1.81231
O     -1.53274    -0.25137    -3.13792
H     -0.81444    -0.89817    -2.96963
O      0.08977    -3.15926     0.05184
H     -0.71929    -2.75949     0.42043
O      1.03757    -2.90316     1.09652
H      1.80045    -2.57261     0.58468
O      0.45388    -1.70833    -2.23087
H      0.37844    -2.23726    -1.41033
O      1.27689    -0.61226    -1.83386
H      0.63215     0.07107    -1.54277
O      2.59056    -1.33875     3.11438
H      2.23084    -2.07103     3.62749
O      1.45454    -0.52851     2.86453
H      0.95837    -1.03114     2.18775
