 16
-606.6410230487936
O      0.17996     1.68891     0.13149
H     -0.53847     1.43519    -0.47861
O     -0.48538     1.69194     1.39251
H     -0.35499     0.78122     1.68834
O     -0.45183    -1.73648     1.08363
H     -0.48119    -2.65868     1.36203
O      0.27260    -1.13205     2.16408
H      1.11096    -0.94033     1.70411
O     -1.55601     0.89594    -1.75401
H     -1.85866     1.51947    -2.42134
O     -0.94440    -0.11646    -2.55497
H     -0.05608    -0.14805    -2.17128
O      1.94288    -0.27809     0.17696
H      1.44012     0.56486     0.15524
O      1.24922    -1.01084    -0.84226
H      0.51700    -1.35946    -0.30637
