 36
-1364.9728338764621
O      1.62358     2.40684     0.03790
H      1.07094     2.12144     0.77514
O      0.75518     3.31530    -0.64872
H      0.34004     2.69972    -1.27666
O     -0.71340    -1.47010     0.45478
H      0.06689    -2.03451     0.34038
O     -1.30773    -1.57085    -0.84268
H     -1.58895    -0.64327    -1.01543
O     -1.28296     1.61456     3.70540
H     -0.61789     1.25193     3.08889
O     -2.32828     0.65631     3.49861
H     -2.76853     0.67427     4.35235
O      0.33539     0.52842     1.86161
H     -0.20010    -0.13011     1.36610
O      1.49511    -0.21827     2.20809
H      1.86971    -0.35705     1.32183
O     -1.75414     2.40346     0.80768
H     -1.62223     3.32985     1.04379
O     -3.07603     2.11956     1.28293
H     -2.86123     1.61937     2.09051
O     -1.63564     0.99460    -1.43915
H     -1.63175     1.57227    -0.64074
O     -0.30428     1.18748    -1.92247
H     -0.18475     0.41043    -2.50500
O      2.21044    -0.38786    -0.41924
H      2.14265     0.55235    -0.66694
O      2.92549    -0.99286    -1.48173
H      2.20612    -1.21005    -2.09151
O      0.48089    -2.05241    -2.76811
H     -0.18181    -2.00718    -2.04110
O      0.12972    -0.89476    -3.52240
H     -0.40431    -1.25566    -4.23731
O      1.58676    -3.26674    -0.14137
H      2.34896    -2.91410    -0.62528
O      1.23221    -4.42305    -0.90241
H      1.38075    -5.11097    -0.24745
