 20
-758.3141250065478
O     -1.51792    -0.76510     1.63977
H     -1.41125    -1.41408     0.91996
O     -2.16956     0.28334     0.89198
H     -1.58314     1.02338     1.13529
O      1.13509    -1.19633    -1.69771
H      1.74763    -0.88580    -1.00561
O      0.75495     0.08477    -2.24254
H     -0.21370    -0.01550    -2.19238
O      0.70019     0.58029     2.18839
H     -0.00874    -0.08901     2.20174
O     -0.05713     1.68937     1.66049
H      0.53064     1.93002     0.92062
O      1.74639     1.56538    -0.27817
H      1.37565     1.28565    -1.13545
O      2.33872     0.31149     0.12178
H      1.94132     0.23790     1.00915
O     -1.67280    -0.69819    -1.52040
H     -2.04681    -0.17142    -0.79009
O     -1.25696    -1.85450    -0.76367
H     -0.33009    -1.90066    -1.06304
