 40
-1516.6423220183024
O      2.16408     1.91303    -0.63357
H      2.52804     1.20469    -0.04254
O      2.41683     3.07153     0.14231
H      3.11904     3.49024    -0.36135
O     -1.53212    -2.09765    -2.93523
H     -0.80743    -1.86141    -3.52370
O     -1.16806    -1.34645    -1.78026
H     -1.95005    -0.79390    -1.60371
O     -0.75794     3.73835     1.20097
H     -0.38674     3.07962     1.81103
O      0.31572     4.64376     0.96079
H      0.98205     4.05977     0.56566
O      1.41870    -0.80766    -1.81159
H      0.43997    -0.79722    -1.71556
O      1.64933    -2.10505    -2.35855
H      1.21612    -2.68453    -1.69856
O     -0.42029     1.24361    -0.67765
H      0.48824     1.52857    -0.89920
O     -1.20784     2.38468    -1.01808
H     -1.06203     2.93877    -0.21219
O      2.63835    -1.31699     0.42998
H      2.36555    -1.08219    -0.48848
O      2.78477    -0.03028     1.03406
H      2.02064    -0.01769     1.65112
O     -3.20646     0.25775     0.68614
H     -4.15212     0.30120     0.85691
O     -3.16356     0.53151    -0.70966
H     -2.64509     1.35713    -0.74339
O     -1.21971    -2.25787     2.18602
H     -0.53239    -2.89540     1.91591
O     -1.87245    -2.12357     0.91790
H     -2.29591    -1.25408     0.98950
O      0.82632    -3.31504     0.83651
H      1.50461    -2.62401     0.71303
O      0.31378    -3.50008    -0.48019
H     -0.49069    -2.95685    -0.44778
O     -0.32613     1.00046     1.93372
H     -0.33165     0.93991     0.95075
O      0.46821    -0.11356     2.32521
H     -0.19137    -0.83802     2.38700
