 36
-1364.9813319683408
O      0.68449     1.47062    -0.19008
H      1.23066     1.46942    -1.00796
O      1.49920     2.16064     0.75332
H      2.16281     1.46585     0.92423
O     -3.02167    -0.07279    -0.19723
H     -2.63436    -0.56396    -0.94667
O     -2.39558     1.20393    -0.41795
H     -1.89106     1.32129     0.41764
O      2.79105    -0.18320     0.94564
H      2.08786    -0.76207     1.29267
O      3.48753    -0.95899    -0.03023
H      2.82244    -1.60671    -0.33910
O      2.79198     0.14371    -2.62252
H      3.21950     0.13803    -1.75115
O      1.93990     1.28631    -2.52408
H      1.12436     0.96436    -2.94131
O      0.33719    -1.11468     1.89279
H     -0.56469    -1.13210     2.26375
O     -0.02379    -1.00096     0.51297
H      0.06462    -0.02715     0.38169
O     -0.95720     1.46941     1.79747
H     -0.09777     1.93163     1.76692
O     -1.66657     2.08736     2.86934
H     -2.03164     1.29554     3.28021
O     -1.35102    -0.69583    -2.16102
H     -0.51570    -1.19937    -2.24894
O     -0.93008     0.62174    -2.54631
H     -1.39756     1.13817    -1.85956
O     -2.38106    -1.17493     2.14728
H     -2.70644    -0.75449     1.31557
O     -3.26115    -0.62291     3.11860
H     -3.73986    -1.40307     3.41118
O      1.05822    -1.87237    -2.36023
H      1.78454    -1.24523    -2.55081
O      1.47781    -2.40926    -1.09940
H      0.80937    -2.00701    -0.50272
