 40
-1516.636639694539
O      2.04715    -0.62516    -3.17644
H      2.19856    -1.33855    -2.54068
O      1.55827     0.37875    -2.30129
H      0.59318     0.37229    -2.46605
O      2.24775    -2.01571    -0.60949
H      1.58594    -2.45362    -0.04126
O      2.56610    -0.85670     0.16504
H      2.27779    -0.15090    -0.43954
O     -0.75506     2.01643     3.62784
H      0.05842     1.50047     3.42569
O     -0.21334     3.22980     4.16068
H     -0.57727     3.20653     5.05097
O      0.92429     2.35131     0.02101
H      0.08431     2.70841     0.39492
O      0.95571     2.94590    -1.28489
H      1.51814     2.30093    -1.73588
O     -1.34428    -3.23831    -1.90943
H     -0.86726    -3.73581    -1.22177
O     -0.29049    -2.38252    -2.34978
H     -0.63946    -2.03684    -3.17878
O      0.98388    -0.43694     2.23337
H      1.68848    -0.74491     1.62274
O      1.42958     0.88454     2.54743
H      1.39671     1.30748     1.67270
O     -1.97258     1.65649     0.65439
H     -2.07752     1.90012    -0.28448
O     -1.41218     2.86609     1.17066
H     -1.33301     2.64007     2.12667
O      0.27197    -3.04330     0.95749
H     -0.44595    -2.37769     0.85369
O     -0.27613    -4.20205     0.35087
H     -0.54918    -4.72339     1.11025
O     -1.40446    -1.00316     0.52602
H     -1.49750    -0.06168     0.78824
O     -2.20714    -1.03363    -0.66511
H     -2.00682    -1.92004    -1.02204
O     -1.09796     0.68768    -2.40244
H     -1.58531     0.12008    -1.77012
O     -1.47186     1.99333    -1.95464
H     -0.59928     2.41785    -1.84701
