 24
-909.968166682612
O     -2.22585    -0.66272     0.64020
H     -2.17745    -0.18727    -0.21426
O     -0.85308    -1.05656     0.83231
H     -0.85072    -1.97886     0.53482
O      0.73520     0.19411    -1.91740
H      0.91114    -0.52789    -1.29132
O      0.85535     1.36505    -1.10839
H      1.62458     1.15734    -0.54566
O      1.85965    -1.96567    -0.19776
H      1.88560    -1.60076     0.70077
O      1.15636    -3.19115    -0.00151
H      1.83453    -3.83392    -0.23364
O     -2.55099    -0.14290    -2.77781
H     -3.04479     0.53497    -3.24738
O     -1.92629     0.64119    -1.76282
H     -0.97757     0.53991    -1.98936
O      2.62816     0.93487     0.86827
H      2.87918     1.66648     1.44200
O      1.88621     0.08694     1.74693
H      1.01633     0.54577     1.75857
O     -0.15100     1.76003     1.53389
H     -0.24816     1.82037     0.57002
O     -1.49419     1.89946     1.99121
H     -1.83321     1.00350     1.85535
