 32
-1213.318916780525
O      1.30724    -0.96212     0.85654
H      1.56606    -0.06884     0.51867
O      2.54721    -1.65804     0.88115
H      2.59763    -1.93396    -0.04963
O     -0.56466    -2.14810    -0.51637
H      0.09990    -1.77003     0.10584
O     -0.30657    -1.36890    -1.68586
H     -0.69899    -0.49694    -1.42914
O     -1.47522     0.82317    -0.84987
H     -1.18673     1.71483    -0.54840
O     -2.84906     1.01923    -1.17303
H     -3.23571     0.36063    -0.57950
O      0.13070     3.14739     1.15989
H     -0.17211     2.30463     1.56996
O     -0.80109     3.23925     0.08189
H     -1.44476     3.88030     0.39956
O      2.02156     1.35759    -0.19881
H      1.67980     2.23328     0.03987
O      1.43064     1.16272    -1.48785
H      1.99577     0.44715    -1.83364
O      2.22379    -2.05541    -1.82601
H      1.26874    -1.81176    -1.86536
O      2.81695    -0.91709    -2.43737
H      2.92138    -1.20133    -3.34951
O     -0.73499     0.80428     2.02336
H     -1.44422     0.13738     1.88956
O     -0.01535     0.29163     3.14171
H      0.68663    -0.19478     2.68729
O     -2.58099    -1.11047     1.68492
H     -2.68058    -1.94264     2.15940
O     -2.98946    -1.42760     0.35857
H     -2.14490    -1.74001    -0.03974
