 36
-1364.9748103640643
O      3.03858     1.43834    -0.77744
H      2.48097     0.72251    -1.14122
O      2.15761     2.56374    -0.81246
H      1.76401     2.54762     0.08456
O      1.21978    -1.10305     1.44052
H      2.02383    -0.60774     1.70770
O      0.20767    -0.27011     2.03639
H     -0.59359    -0.63472     1.62609
O     -2.86984    -1.34012    -2.31848
H     -3.51026    -0.63991    -2.47336
O     -3.46798    -2.03407    -1.21666
H     -2.73670    -2.64341    -1.00124
O     -3.34146    -0.31033     1.02755
H     -3.44576    -0.94056     0.29605
O     -2.15580     0.35946     0.59830
H     -2.10551     1.13119     1.18476
O     -1.06731     0.91963    -1.73964
H     -1.51387     0.70167    -0.89597
O     -0.63798     2.25216    -1.49010
H      0.31753     2.18893    -1.64551
O      0.31511    -1.32964    -1.95594
H     -0.30972    -0.60859    -2.16464
O      1.30370    -0.60684    -1.22396
H      1.13376    -0.84408    -0.28755
O      0.69903     2.24831     1.39425
H      0.56547     1.31997     1.68456
O     -0.64553     2.66712     1.15244
H     -0.65402     2.66435     0.17787
O      3.26959     0.57499     1.71859
H      3.37182     1.00074     0.83726
O      4.17266    -0.52279     1.60063
H      4.57545    -0.49616     2.47173
O     -1.09170    -3.14169    -0.55151
H     -0.50856    -2.57895    -1.10286
O     -1.06578    -2.44308     0.69686
H     -0.49045    -3.00277     1.23265
