 16
-606.6335231414017
O     -2.55331     0.25392     1.45680
H     -3.27957    -0.36171     1.58193
O     -1.45395    -0.65781     1.42278
H     -0.70401    -0.05208     1.58860
O      1.78592     0.31326     1.47261
H      1.89909     0.62532     0.56223
O      0.59829     1.03573     1.82302
H      0.86286     1.47362     2.63814
O      1.30227     0.86861    -1.29167
H      0.67269     0.12562    -1.38737
O      2.26231     0.54876    -2.30375
H      2.22165     1.34383    -2.84302
O     -1.64552    -0.92376    -1.24357
H     -1.66295    -0.89987    -0.26487
O     -0.27823    -1.31726    -1.45396
H     -0.35279    -1.87026    -2.23788
