 20
-758.3073414165116
O     -1.54281    -1.35566     1.18211
H     -1.90563    -1.02474     0.34346
O     -1.68026    -0.15773     1.97213
H     -0.73022     0.05437     2.08899
O      0.76363     1.54656    -0.73356
H      1.59007     1.25286    -1.14214
O     -0.17923     0.90369    -1.60278
H     -0.98081     1.38718    -1.37479
O      1.11216    -1.15372     0.91890
H      0.20004    -1.50110     0.92744
O      0.88802     0.12476     1.54139
H      0.82690     0.69704     0.75076
O      3.19574    -0.93445    -2.14713
H      4.14871    -1.05619    -2.10422
O      2.96759    -0.15968    -0.96811
H      2.44173    -0.77131    -0.42717
O     -2.57133     1.34282    -0.07271
H     -2.19725     1.08702     0.79172
O     -2.98443     0.05026    -0.53994
H     -3.88137    -0.01659    -0.19765
