 40
-1516.6402924647114
O      1.79904    -1.25439    -1.02813
H      1.24754    -0.49846    -1.34377
O      2.09020    -0.81892     0.30396
H      1.17359    -0.77264     0.66069
O     -2.94391     0.91372     0.67604
H     -2.89436     1.86848     0.89570
O     -2.23776     0.85117    -0.55750
H     -2.41180    -0.08090    -0.83037
O      0.12927     2.65765     0.82582
H      0.99430     2.44529     0.43033
O      0.30110     2.15638     2.15884
H     -0.17992     1.31102     2.12201
O     -0.45683    -0.89721     0.73481
H     -0.61681    -1.86707     0.81473
O     -0.99606    -0.31605     1.93312
H     -1.82577     0.04118     1.54197
O     -2.08190     4.24423     0.80939
H     -1.24729     3.74100     0.85795
O     -2.88667     3.41592     1.65840
H     -3.60197     4.01367     1.89201
O      0.23723     0.77135    -1.56016
H     -0.59211     1.00887    -1.08111
O      0.37276     1.83965    -2.49420
H      1.29187     2.06633    -2.29274
O     -1.85266    -1.23459    -2.91770
H     -1.23146    -0.50104    -2.80480
O     -2.14410    -1.58045    -1.56521
H     -1.52175    -2.31923    -1.38285
O     -0.07281    -3.20533    -0.89819
H      0.70112    -2.60454    -0.96090
O     -0.14735    -3.48609     0.50641
H      0.72413    -3.89722     0.67716
O      2.52463    -3.20053     1.78191
H      2.65914    -2.43026     1.21059
O      2.40801    -4.21825     0.78571
H      2.89137    -4.94410     1.18729
O      2.53012     1.80443    -0.13769
H      2.56476     0.83686     0.02449
O      2.89593     1.88073    -1.51369
H      3.53941     2.59311    -1.47987
