 24
-909.9700902512219
O     -2.79592     0.34788     0.00455
H     -2.07414     0.44920    -0.65392
O     -2.61596    -1.02850     0.34608
H     -3.43038    -1.21907     0.82144
O      2.38430    -2.08477     0.68141
H      3.16850    -2.03093     1.23719
O      2.43076    -0.81026     0.03247
H      1.63639    -0.37736     0.38847
O      2.12791     0.33646    -3.21356
H      1.86570     1.14447    -2.75144
O      1.26939    -0.63357    -2.60903
H      1.81406    -0.96469    -1.87979
O      0.35035     1.41762    -0.73018
H     -0.19147     1.88299    -0.05600
O     -0.67833     0.77948    -1.50977
H     -0.12749     0.13318    -2.00209
O     -0.21554    -0.56351     1.37599
H     -1.05188    -0.85174     0.95136
O      0.06606    -1.66133     2.25667
H      0.80157    -2.04766     1.76165
O     -1.28262     2.45803     1.10646
H     -2.13378     2.02772     0.93896
O     -0.90515     1.87997     2.36252
H     -0.55747     1.01158     2.08626
