 20
-758.3100872139597
O      0.20616    -2.16634     0.02698
H     -0.30806    -1.72722     0.73993
O     -0.81178    -2.72010    -0.80241
H     -0.57202    -3.65105    -0.78066
O      2.71129    -0.11298    -0.28979
H      3.34755     0.18109    -0.94678
O      1.50628    -0.08237    -1.06637
H      1.05213    -0.86580    -0.69570
O      0.98697     1.58065     1.35295
H      1.53462     1.24593     0.62793
O      0.09054     2.46730     0.66525
H     -0.75149     2.17341     1.04503
O     -0.69245    -0.41261     1.85151
H      0.05146     0.21915     1.88745
O     -1.71378     0.46068     1.34142
H     -1.72858     0.21015     0.39713
O     -1.63062     0.03428    -1.27784
H     -1.13259    -0.64388    -1.75444
O     -1.20434     1.24527    -1.89999
H     -0.62612     1.61917    -1.21912
