 32
-1213.3138332131066
O      1.81533     2.01402     2.65869
H      2.22910     1.62707     1.87207
O      0.70730     1.14097     2.85208
H     -0.05634     1.71207     2.69046
O      1.77875    -3.28696    -0.49117
H      2.44586    -3.92587    -0.76185
O      1.73260    -2.40292    -1.60800
H      2.12281    -1.58606    -1.22651
O     -3.04540     1.99048    -0.70935
H     -2.14449     2.26263    -0.98472
O     -3.64645     1.57866    -1.93161
H     -3.18293     0.75125    -2.12976
O      0.25144     1.68468    -0.14561
H     -0.42886     1.17737     0.35287
O     -0.43233     2.01000    -1.35743
H     -0.40242     1.14455    -1.80304
O      2.28235     0.05538    -0.73155
H      1.56438     0.71911    -0.60402
O      3.04142     0.18537     0.47844
H      2.61845    -0.48954     1.04177
O     -0.50346    -0.56117    -1.97008
H      0.00826    -1.38292    -1.90061
O     -1.86355    -1.01055    -1.94581
H     -2.08876    -0.92510    -0.99796
O      0.38426    -1.77078     1.25057
H      0.87915    -2.40157     0.68786
O      1.43176    -1.28538     2.09606
H      1.03408    -0.46126     2.44981
O     -1.42504     0.15638     1.18628
H     -0.86882    -0.65147     1.14257
O     -2.63382    -0.29283     0.56954
H     -2.98228     0.56915     0.24908
