 16
-606.6349295371127
O     -2.16755    -0.17674     0.94330
H     -2.64252    -0.33241     1.76633
O     -1.73262     1.17748     1.08498
H     -0.78475     1.04788     1.26716
O      2.06025    -0.13888     1.32446
H      1.86387     0.22721     0.45011
O      0.79104    -0.04583     1.97151
H      0.44505    -0.93658     1.83932
O      1.30210     0.63470    -1.48625
H      0.48992     0.10885    -1.57445
O      0.82917     1.97705    -1.65946
H      1.24617     2.21140    -2.49347
O     -0.27194    -1.53485    -0.31632
H     -1.03102    -1.03450     0.03774
O     -0.60740    -1.52491    -1.70708
H     -0.02173    -2.21204    -2.03267
