 20
-758.301718957358
O     -0.35002    -2.56794    -0.04627
H     -0.14024    -1.96820    -0.77531
O     -0.72743    -1.64901     0.98282
H     -1.68409    -1.53567     0.83022
O      0.44128     2.09070     1.00682
H      1.34213     1.84516     0.74109
O     -0.30794     1.03437     0.41092
H     -0.09341     0.27106     0.97470
O      3.13868     1.43513    -0.04317
H      3.81029     1.39762     0.64285
O      2.56556     0.13023     0.09501
H      2.17787     0.02258    -0.79271
O      1.31199    -0.01627    -2.29465
H      1.31142     0.72401    -2.91077
O     -0.07331    -0.15993    -1.97137
H     -0.15171     0.35870    -1.14268
O     -2.93624     0.23224     1.40315
H     -2.31345     0.81147     0.94761
O     -3.18087    -0.71467     0.36184
H     -4.08231    -0.98584     0.55897
