 32
-1213.3052199856716
O      0.27010    -0.56409     2.02578
H      0.40118     0.34685     1.69861
O      1.58169    -0.93663     2.45676
H      2.11684    -0.78543     1.65700
O     -0.60228    -2.39634     0.32444
H     -0.42090    -1.71315     1.01063
O     -1.57190    -1.78936    -0.53041
H     -1.03922    -1.11943    -1.00329
O      0.98272     3.06837     0.46522
H      0.20450     3.64022     0.44273
O      0.39502     1.80933     0.75615
H     -0.08140     1.58910    -0.06352
O     -2.10912     3.44934    -0.28442
H     -2.91497     3.77460    -0.69667
O     -2.07458     2.10140    -0.75566
H     -2.32612     1.58897     0.04460
O     -0.02552     0.08919    -1.64566
H      0.94840     0.14793    -1.52821
O     -0.23699     0.94511    -2.77039
H     -0.99634     1.44120    -2.43678
O      2.85126    -0.44293     0.07427
H      2.54375    -1.23819    -0.41364
O      2.46330     0.59178    -0.84629
H      2.28369     1.32656    -0.24218
O      2.49662    -3.44085    -0.45106
H      2.96850    -3.78126    -1.21453
O      1.64348    -2.49825    -1.09848
H      0.79103    -2.63347    -0.62197
O     -2.37005     0.44481     1.30968
H     -2.36513     0.31586     2.26592
O     -3.40948    -0.43754     0.87435
H     -2.87159    -1.10295     0.39769
