 32
-1213.3136019497617
O      2.04933    -1.62473     0.80663
H      1.97381    -2.32682     0.14083
O      3.22040    -0.91845     0.40306
H      2.83702    -0.11228     0.00455
O      0.91638    -2.36029    -2.33219
H      0.64501    -2.93051    -3.06003
O      0.71035    -3.17930    -1.18298
H     -0.04352    -2.72546    -0.76195
O     -0.50004     0.47507    -3.10754
H     -1.41627     0.50330    -2.80139
O      0.12525     0.13355    -1.88020
H      0.50365    -0.75063    -2.08317
O     -2.45816     0.72497    -0.79669
H     -1.87544     1.49913    -0.65415
O     -3.20892     0.77606     0.42745
H     -2.94175    -0.08599     0.80146
O      1.59697     2.16627     0.43699
H      1.67916     1.57565     1.21532
O      2.11678     1.33621    -0.60001
H      1.31225     1.06270    -1.08409
O     -1.04723    -1.59984     0.11063
H     -1.05348    -0.72970    -0.33127
O     -1.84706    -1.36261     1.26436
H     -1.19140    -0.95992     1.86682
O      1.30326     0.37612     2.37207
H      1.53962    -0.46979     1.93089
O     -0.09510     0.21187     2.60926
H     -0.44972     1.08342     2.34573
O     -1.42313     2.37782     1.59299
H     -2.28769     1.96326     1.40968
O     -1.01540     2.61510     0.23795
H     -0.03738     2.54529     0.30015
