 36
-1364.9772587126781
O      0.31521     3.92684     0.29890
H      0.16374     4.79212    -0.09001
O      0.84528     3.21698    -0.81508
H      1.73142     2.96704    -0.49933
O     -2.20868    -0.12659    -1.19122
H     -1.36954     0.18586    -1.58663
O     -2.12919    -1.54948    -1.32137
H     -2.25484    -1.81168    -0.39274
O     -0.63584    -1.38679     1.66875
H      0.00067    -2.06834     1.39527
O     -1.90797    -1.97116     1.37455
H     -2.47693    -1.23655     1.70761
O     -0.08604     1.06589     0.88311
H     -0.38800     0.16352     1.14671
O     -0.88117     1.90948     1.72360
H     -0.67316     2.75097     1.29423
O     -3.85332     0.61009     0.82630
H     -3.26789     0.33552     0.09587
O     -3.03311     0.33011     1.95855
H     -2.37657     1.05375     1.93008
O      0.01587     1.05558    -2.18722
H      0.25997     1.84326    -1.66823
O      1.29058     0.42850    -2.37051
H      1.09903    -0.47449    -2.02684
O      2.49393     0.50676     0.54796
H      1.56136     0.78371     0.68368
O      2.93476     1.37851    -0.49357
H      2.50257     0.97739    -1.27424
O      1.19221    -3.04390    -1.77841
H      1.86439    -3.11421    -1.08872
O      0.55363    -1.85311    -1.30970
H     -0.40162    -2.00496    -1.46980
O      2.80926    -2.21446     0.45555
H      2.72453    -1.23845     0.46903
O      1.99260    -2.59714     1.56387
H      2.64866    -2.79926     2.24024
