 32
-1213.3078790547715
O      3.15276     0.61359     0.75165
H      2.76343     0.26979    -0.07875
O      2.57087     1.92757     0.77876
H      1.70251     1.74712     1.17883
O     -1.84884    -1.84570    -0.60424
H     -1.13543    -2.05761     0.03180
O     -1.04234    -1.60211    -1.76834
H     -1.13169    -0.63184    -1.85525
O     -1.17588     1.04871    -1.88163
H     -0.35871     1.52219    -2.12449
O     -2.13758     1.51296    -2.83238
H     -2.90606     1.55471    -2.25114
O     -0.40634     0.48532     0.76973
H     -1.34374     0.75333     0.72242
O      0.12116     1.30358     1.81588
H      0.39466     0.61152     2.44539
O      1.40925     0.37700    -1.23206
H      0.67169     0.39771    -0.58702
O      1.43835     1.74035    -1.65813
H      1.91930     2.13387    -0.90662
O      1.39235    -2.65041    -0.39506
H      0.87523    -2.39530    -1.17307
O      0.43756    -2.35802     0.62980
H      1.00542    -2.04161     1.35275
O      2.11742    -1.23899     2.45806
H      2.58451    -0.53046     1.96198
O      1.33809    -0.49997     3.39564
H      1.84698    -0.59678     4.20510
O     -3.21334     0.29646     0.14638
H     -2.88765    -0.55695    -0.22470
O     -4.27840     0.59691    -0.75372
H     -5.04346     0.53148    -0.17399
