 32
-1213.3035114004665
O      2.52285     1.28897     2.35347
H      3.20501     1.82925     2.76530
O      2.19624     2.09814     1.22419
H      1.28470     2.39815     1.44886
O     -1.10697    -2.60011    -0.66431
H     -0.34688    -2.92421    -1.17328
O     -1.88699    -1.94124    -1.66470
H     -1.43063    -1.07749    -1.74741
O     -0.65911     0.44590    -1.62504
H      0.23944     0.42447    -1.23380
O     -1.37194     1.27215    -0.69810
H     -1.95770     0.60959    -0.26812
O     -0.44794     2.60410     1.41945
H     -0.80166     2.26447     0.56909
O     -0.90804     1.60353     2.34093
H     -0.39697     0.82226     2.04548
O      1.90357     0.40229    -0.89741
H      2.12976     1.10903    -0.25831
O      2.54443     0.80560    -2.11233
H      2.04986     0.22751    -2.70551
O      1.49880    -2.33892    -1.73417
H      1.67216    -1.59752    -1.13720
O      1.31258    -1.61332    -2.95518
H      1.91011    -2.08979    -3.54182
O     -0.11291    -1.64901     1.66718
H     -0.52435    -1.90127     0.82137
O      0.48322    -0.40468     1.28618
H      1.38188    -0.49308     1.63203
O     -3.53652     0.57614     1.45286
H     -2.80225     0.93685     1.97041
O     -2.81463    -0.40255     0.70282
H     -3.46074    -1.10358     0.54975
