 36
-1364.9756851444013
O      3.36755    -1.09795    -0.55708
H      2.50051    -1.25759    -0.98807
O      3.00552    -1.30803     0.80272
H      3.61956    -1.99997     1.06576
O      0.66684    -2.79886    -1.83175
H      1.03392    -3.05147    -2.68275
O      1.02845    -1.42425    -1.79424
H      0.15767    -0.97543    -1.89026
O     -0.12773     2.32371     2.26693
H      0.08798     2.75390     1.42503
O      0.95898     1.41181     2.43127
H      0.49227     0.55401     2.46489
O      0.32835    -1.79547     1.16632
H      1.24604    -1.46785     1.09190
O     -0.23530    -0.97646     2.18960
H     -1.03899    -0.65546     1.74739
O     -2.56866    -0.14507    -1.50169
H     -2.50512    -0.96698    -0.97634
O     -1.26960    -0.03407    -2.07292
H     -1.04773     0.91760    -1.93917
O     -2.27299     0.97736     1.39137
H     -1.65546     1.59179     1.83109
O     -2.74798     1.78830     0.31632
H     -2.85541     1.11307    -0.38370
O     -0.63417     3.22628    -0.49408
H     -1.47860     2.79694    -0.25469
O     -0.21057     2.38088    -1.56705
H      0.64247     2.04567    -1.21618
O      1.81611     1.20161    -0.29333
H      1.88416     1.24152     0.67825
O      3.08370     1.68911    -0.73600
H      3.52419     0.84209    -0.88938
O     -1.77053    -3.20071     0.05592
H     -0.98018    -2.84423     0.49384
O     -2.68683    -2.13828     0.30966
H     -3.49684    -2.60720     0.53196
