 32
-1213.308932840949
O      1.23537    -1.72023     2.29270
H      1.44677    -0.78100     2.48823
O     -0.15707    -1.74208     2.59117
H     -0.17692    -2.18405     3.44618
O     -1.16183    -2.26131    -3.65248
H     -1.55915    -1.76501    -2.92184
O     -0.55361    -3.31898    -2.90254
H     -0.33640    -3.94196    -3.60026
O     -1.67167    -0.68962    -1.23806
H     -0.83979    -1.03154    -0.83806
O     -2.65588    -1.17847    -0.33741
H     -2.52259    -0.58357     0.42425
O     -1.01228     1.76617    -0.72995
H     -1.45977     0.94302    -1.03317
O      0.26782     1.62193    -1.35177
H      0.63859     0.83974    -0.90251
O      0.95995     3.96086    -0.24951
H      0.74520     3.15278    -0.75591
O      2.05568     3.49903     0.54484
H      2.81328     3.87331     0.08506
O      1.43388    -1.95476    -1.62914
H      0.70358    -2.45320    -2.03888
O      0.73726    -1.37986    -0.52064
H      1.21191    -1.72045     0.25754
O      1.71087     0.92320     1.09188
H      1.85559     1.88092     0.93350
O      1.43587     0.92516     2.49769
H      0.50030     1.21916     2.48646
O     -1.12211     1.46202     1.93606
H     -1.09352     1.77021     1.00894
O     -1.79155     0.21167     1.79062
H     -1.11015    -0.42864     2.07640
