 36
-1364.9719967641574
O     -3.46724     0.41422    -0.14691
H     -3.08979     0.67131     0.70767
O     -2.33186    -0.23539    -0.71530
H     -2.10155     0.35983    -1.46115
O     -0.47555    -1.65983     1.08834
H     -0.02334    -2.52143     0.95000
O     -1.84663    -2.06548     1.14652
H     -2.19118    -1.53828     0.39895
O     -1.15860     0.82214     1.64179
H     -0.95922    -0.12730     1.80649
O     -1.39112     1.37026     2.93840
H     -0.63529     1.97082     2.99252
O     -0.05723    -1.89388    -1.79637
H     -0.32100    -1.31050    -1.06338
O      0.88789    -1.11995    -2.52492
H      0.33758    -0.44854    -2.95979
O     -1.68522     1.34531    -2.73581
H     -2.03585     2.21644    -2.95055
O     -0.28672     1.48142    -2.98932
H      0.04840     1.53348    -2.06627
O      0.66168     3.71371     1.64409
H      1.14925     3.06337     1.10821
O      0.95987     3.23172     2.96352
H      0.92316     4.05450     3.45749
O      1.61426     1.71510     0.03971
H      2.04988     0.87814     0.30799
O      0.38710     1.18942    -0.47867
H     -0.18262     1.15870     0.32803
O      3.27353    -0.72305    -0.66378
H      2.59095    -0.68449    -1.35171
O      2.46415    -0.78270     0.51285
H      2.44768    -1.73328     0.71348
O      1.73967    -3.34753    -0.46949
H      1.11817    -2.86284    -1.05605
O      0.85727    -3.86623     0.52716
H      0.53241    -4.68221     0.13288
