 32
-1213.303811458501
O      2.49660    -1.94923     2.24453
H      1.78232    -1.44057     2.65544
O      2.07304    -1.99314     0.88476
H      2.70588    -1.40804     0.44215
O      0.51768    -2.02047    -1.33005
H      0.98093    -2.32019    -0.52913
O      0.04641    -0.77490    -0.80307
H     -0.87627    -0.68063    -1.13766
O     -2.11988     1.45855    -1.31990
H     -1.30662     1.47017    -1.85392
O     -2.43254     0.06004    -1.30622
H     -2.91366     0.00429    -0.45730
O      0.34107     1.85141     0.92940
H      0.66922     1.90266     0.01276
O     -0.74916     2.77023     0.93582
H     -1.41649     2.27778     0.43393
O      0.23670     1.69210    -2.63149
H      0.40434     2.46204    -3.18447
O      1.28535     1.80330    -1.67233
H      1.85672     1.05750    -1.92254
O      3.49793    -0.88520    -1.33272
H      4.10936    -1.51331    -1.72809
O      2.59351    -0.64216    -2.41146
H      1.83720    -1.21789    -2.17511
O     -0.73795    -0.72666     2.10901
H     -0.24591    -0.79668     1.27431
O      0.14087     0.07168     2.90729
H      0.24197     0.86265     2.33538
O     -3.12063     0.23370     1.32072
H     -2.27860    -0.06588     1.73883
O     -4.03672    -0.77699     1.74712
H     -4.60863    -0.26964     2.33006
