 32
-1213.315276137622
O      2.51511     1.48875     1.31130
H      2.52763     1.29542     0.35900
O      2.32500     0.18402     1.87141
H      1.82895     0.41312     2.68218
O      0.45362    -0.78500    -3.72672
H     -0.16068    -0.77559    -4.46750
O     -0.19060    -1.62435    -2.76810
H     -0.92848    -1.03601    -2.46065
O     -1.98281     0.15171    -2.08795
H     -1.91505     0.89239    -1.44594
O     -2.99814    -0.66375    -1.50784
H     -2.57427    -0.92437    -0.67225
O     -1.86653    -1.69214     2.15342
H     -1.64342    -0.99295     2.78160
O     -1.71220    -1.00260     0.92535
H     -0.77282    -1.18971     0.69132
O      0.99520     0.91837    -1.73970
H      0.87527     0.36970    -2.54542
O      2.37569     0.70943    -1.40864
H      2.35935    -0.24892    -1.20829
O      0.86545    -1.47650     0.38825
H      1.46750    -0.89818     0.91816
O      1.67881    -1.77540    -0.75320
H      0.99694    -1.91695    -1.43182
O      0.57887     0.88506     3.78768
H      0.61381     1.70164     4.29651
O     -0.62921     1.03461     3.04008
H     -0.30183     1.33839     2.16774
O     -0.31939     1.60810     0.46398
H      0.13903     1.35307    -0.37090
O     -1.68569     1.69416     0.06967
H     -2.06176     1.01901     0.65158
