 32
-1213.3038973048656
O      2.43586    -1.46790     1.65556
H      3.11768    -1.66711     2.30651
O      2.57742    -2.53563     0.71956
H      2.85595    -2.03332    -0.06434
O      0.31790    -2.31140    -1.54136
H     -0.00814    -2.05554    -0.66522
O      0.25113    -1.08211    -2.25639
H      1.19690    -0.88013    -2.39084
O      0.65693     0.70330    -0.16799
H     -0.05960     0.54338    -0.81752
O      0.53322     2.09597     0.10990
H      0.23225     2.06316     1.03021
O     -0.88962    -1.46630     1.12809
H     -1.42758    -0.68238     0.89009
O     -0.13139    -0.93511     2.22144
H      0.78834    -1.10732     1.93507
O     -1.59639     1.32266    -2.05602
H     -1.16604     2.13073    -2.36234
O     -1.91097     0.63274    -3.27101
H     -1.35878    -0.15683    -3.14250
O      3.06036    -0.13035    -0.92423
H      2.18929     0.20331    -0.60567
O      2.82840    -0.29162    -2.32754
H      3.18441     0.52283    -2.69690
O     -0.46722     1.57409     2.97276
H     -0.43909     0.61735     2.72878
O     -1.86377     1.82426     3.12900
H     -2.04581     1.48312     4.00987
O     -3.54185     0.80834     0.12158
H     -3.27395     1.06046    -0.77160
O     -2.23735     0.77291     0.71597
H     -2.34377     1.29145     1.53987
