 40
-1516.6424802607883
O     -0.88107     1.72203    -1.45763
H     -0.31894     1.63006    -0.66275
O     -1.81232     2.73268    -1.05745
H     -2.63636     2.19808    -1.03651
O      1.14428    -1.38361    -1.80879
H      1.81418    -2.06684    -1.64249
O     -0.06456    -2.14563    -1.70681
H     -0.59884    -1.67257    -2.36822
O      0.86386     3.73744     1.76997
H      0.65097     2.92763     2.25568
O      0.62956     3.29859     0.42484
H     -0.10351     3.86209     0.13781
O      1.41852     0.51802     0.03991
H      1.25293    -0.15134    -0.66571
O      2.51000     1.26769    -0.49484
H      2.22695     2.13775    -0.16816
O     -3.79953     0.98229    -1.32222
H     -3.59056     0.48173    -2.12989
O     -3.74160    -0.04664    -0.33823
H     -2.81276    -0.03051    -0.05052
O      2.82655    -2.62809    -0.05845
H      2.13369    -2.96221     0.53944
O      3.31827    -1.54865     0.76068
H      3.30805    -0.79702     0.15246
O     -1.25756    -0.52044     0.71705
H     -0.87700    -0.22873     1.57652
O     -1.06588    -1.93629     0.78475
H     -0.78370    -2.11624    -0.13368
O     -2.71061    -0.24004    -3.47675
H     -2.68900     0.11156    -4.37071
O     -1.32607    -0.27827    -3.15090
H     -1.22035     0.50115    -2.55661
O      1.07866    -2.95217     1.96620
H      0.23376    -2.52925     1.70158
O      1.55959    -2.08042     2.99257
H      2.36314    -1.74597     2.56914
O      0.07413     0.12033     2.99572
H      0.51973    -0.71032     3.26105
O      1.20603     0.91756     2.64856
H      1.30434     0.70400     1.69822
