 40
-1516.6397389100052
O      0.94109     2.01559     0.21525
H      1.54191     1.90113    -0.56345
O      1.83835     1.76949     1.30211
H      1.27408     1.23576     1.90874
O      4.21819    -0.15335    -0.33430
H      5.15219    -0.15346    -0.10348
O      3.58523    -0.26670     0.93024
H      3.16526     0.60906     1.03188
O     -0.47153     1.79396    -2.58345
H     -1.22359     1.19742    -2.35333
O     -0.88726     3.06006    -2.08847
H     -0.47128     3.07028    -1.21691
O     -2.12774     2.25048     1.00134
H     -2.27921     2.13296     1.94169
O     -1.45034     1.03962     0.70676
H     -0.55261     1.38107     0.46517
O     -3.50472    -2.06019     0.44630
H     -3.15666    -1.90279    -0.45636
O     -4.08785    -3.35507     0.33591
H     -5.01090    -3.14793     0.50296
O      0.60870    -1.26148    -1.51840
H      1.19350    -0.61028    -1.95751
O      0.77821    -0.89435    -0.14682
H      0.07290    -1.39906     0.29625
O      1.39627    -1.13572     2.82826
H      1.86126    -1.05289     1.97845
O      0.55402     0.02097     2.82325
H     -0.28043    -0.37908     2.50473
O     -2.02223    -1.19466    -1.64755
H     -1.04205    -1.15682    -1.74731
O     -2.39419     0.18964    -1.67386
H     -2.24928     0.46134    -0.74238
O     -1.28999    -1.66584     1.97342
H     -2.13760    -1.87929     1.53155
O     -0.53835    -2.87714     1.79710
H      0.14039    -2.72050     2.46600
O      1.96256     0.76254    -2.66840
H      1.14105     1.29279    -2.76596
O      2.68544     1.55146    -1.72257
H      3.31981     0.90028    -1.36136
