 36
-1364.9670552695331
O      2.70617     1.05124     2.45540
H      2.20837     0.23885     2.68883
O      3.21866     0.66841     1.17404
H      4.15131     0.50688     1.34863
O     -1.85673    -1.17825    -0.28465
H     -1.34328    -0.48294     0.17907
O     -2.57611    -1.76776     0.79327
H     -1.99045    -2.50362     1.01548
O      1.12160    -1.06566     2.72353
H      0.66614    -1.82349     2.29435
O      0.05877    -0.34424     3.33339
H     -0.12723     0.32852     2.66052
O      1.58118    -0.83152    -0.21950
H      2.18708    -0.26490     0.31979
O      2.45164    -1.37454    -1.21244
H      1.82433    -1.36851    -1.95056
O     -2.74405     1.08818    -1.79475
H     -2.95614     0.29677    -1.28216
O     -2.88877     2.10138    -0.78762
H     -2.43185     2.83806    -1.22071
O     -0.94273     1.09223     0.75619
H     -1.68390     1.57660     0.32286
O      0.20499     1.66473     0.12545
H      0.41061     1.00213    -0.56715
O     -0.00228     0.06268    -2.37966
H     -0.92660     0.32449    -2.53470
O      0.02170    -1.35152    -2.55395
H     -0.48986    -1.66462    -1.78878
O     -0.57566     3.71315    -1.37414
H     -0.16631     3.07932    -0.74988
O     -0.24593     3.09074    -2.62298
H      0.42365     3.69084    -2.96791
O      0.13948    -3.23826     1.50199
H      0.53457    -4.09925     1.67182
O      0.30703    -3.09598     0.08705
H      0.88398    -2.30048     0.02650
