 24
-909.9716052043651
O     -2.19431    -0.28529     0.85812
H     -2.39744    -0.06918    -0.07237
O     -1.28649    -1.38104     0.69837
H     -0.92935    -1.46112     1.60516
O      0.80409    -1.49529    -0.96028
H     -0.02464    -1.43408    -0.44831
O      0.40648    -0.90848    -2.20190
H      1.26094    -0.77089    -2.61904
O      3.04271    -0.24407    -0.17881
H      2.23249    -0.75268    -0.38049
O      2.72830     0.97785    -0.86246
H      3.38611     1.57589    -0.49428
O     -2.05428     0.77382    -1.61718
H     -1.22200     1.21514    -1.34770
O     -2.97225     1.86168    -1.63240
H     -3.29975     1.80317    -2.53406
O      1.19510    -1.05111     2.17061
H      1.01031    -0.11540     1.99549
O      0.06834    -1.37561     2.98098
H      0.43244    -2.05727     3.55237
O      0.17404     1.64833    -0.34889
H      1.07928     1.32896    -0.52276
O     -0.00601     1.29680     1.03278
H     -0.86408     0.82832     1.01359
