 16
-606.6431618213043
O     -2.33827    -0.60401     1.84749
H     -3.01073    -0.15607     2.37010
O     -1.81839     0.48428     1.08937
H     -0.89822     0.55086     1.41528
O      0.89467     0.80241     1.15884
H      1.01499     1.23154     0.28598
O      1.45476    -0.48116     0.84437
H      0.73915    -0.87982     0.31623
O      1.22632     1.27957    -1.41974
H      0.59156     0.63451    -1.76760
O      2.48484     0.63135    -1.63389
H      2.56654     0.13027    -0.80913
O     -0.47976    -1.59894    -0.69822
H     -1.21523    -2.09901    -0.32960
O     -1.13138    -0.50089    -1.34803
H     -1.48865    -0.02393    -0.57741
