 32
-1213.31463313512
O      2.64905    -0.92359     1.06724
H      1.86777    -0.35987     1.19049
O      2.06239    -2.22820     1.13797
H      1.97047    -2.41778     0.18625
O      2.02480    -1.82406    -1.49606
H      1.16230    -1.60416    -1.91322
O      2.71457    -0.56964    -1.57188
H      3.07648    -0.54804    -0.66796
O     -3.44059    -0.00803    -0.41553
H     -2.84721    -0.49824    -1.01886
O     -3.99036    -1.02984     0.40726
H     -3.22748    -1.33906     0.91119
O      1.25244     1.71815    -1.33881
H      1.70648     0.90851    -1.65027
O     -0.08774     1.52220    -1.79154
H     -0.59880     1.81134    -1.01040
O      1.41615     1.70924     1.32556
H      1.42970     1.83179     0.35569
O      0.93559     2.98907     1.72216
H      1.24130     3.01559     2.63306
O     -0.34917    -1.02676    -2.42348
H     -0.34984    -0.04737    -2.38745
O     -1.30250    -1.35051    -1.41513
H     -0.79425    -1.19486    -0.58959
O     -0.26054    -0.73566     0.93857
H     -0.75573     0.02349     1.31522
O     -0.48681    -1.77226     1.89757
H      0.41299    -2.14564     1.88931
O     -1.29889     2.29012     0.46063
H     -0.63915     2.67874     1.06560
O     -1.91268     1.31845     1.31519
H     -2.65027     1.00205     0.74574
