 28
-1061.6496324503028
O     -0.59566     0.33766    -2.86521
H      0.19401     0.76699    -2.45629
O     -0.03268    -0.86839    -3.38812
H     -0.04668    -0.67101    -4.32924
O      1.69597     1.15786    -1.72353
H      2.02822     0.29118    -1.40501
O      1.57140     1.83131    -0.46643
H      0.62482     1.68542    -0.27287
O      1.11309    -0.56875     3.06683
H      1.84503    -0.54051     2.41713
O      0.92673     0.82853     3.30855
H     -0.26021    -1.32203     2.39063
O     -1.12032     1.16834     1.45596
H     -1.33236     0.22334     1.57924
O     -0.97249     1.24614     0.03210
H     -1.86334     0.99611    -0.28341
O     -2.34037    -0.92391    -1.26945
H     -1.84657    -0.53437    -2.02327
O     -3.20915     0.15320    -0.92898
H     -4.04771    -0.30363    -0.81437
O     -0.38717    -1.50820     0.53651
H     -1.14459    -1.38387    -0.06672
O     -1.03409    -1.50317     1.81034
H      0.24899     1.05527     2.65203
O      2.13578    -0.89380    -0.15380
H      1.23842    -1.10168     0.17065
O      2.67197    -0.11925     0.92101
H      2.42455     0.78083     0.62308
