 24
-909.975095505882
O     -1.73321    -1.21974     0.29979
H     -2.40617    -0.79354    -0.24892
O     -1.74356    -0.35082     1.43548
H     -1.12460    -0.82244     2.01762
O      0.49879    -0.94492    -1.16373
H     -0.25432    -1.17051    -0.58728
O     -0.01530     0.20803    -1.84720
H      0.34865     0.90707    -1.26798
O      3.17399    -0.45183    -0.94537
H      2.21095    -0.61871    -0.97882
O      3.29932     0.44290     0.16370
H      3.30301    -0.15797     0.92077
O     -3.75225     0.53746    -2.46143
H     -4.13017     1.41650    -2.55979
O     -2.77085     0.77069    -1.44590
H     -1.93992     0.65722    -1.93651
O      1.38975    -0.90175     1.93503
H      1.05330    -0.00166     1.73863
O      0.34676    -1.36680     2.79953
H      0.55257    -2.30621     2.84245
O      1.05276     1.85968    -0.01253
H      1.94666     1.46162     0.08098
O      0.45668     1.46887     1.23323
H     -0.45032     1.24501     0.97094
