 32
-1213.305143363381
O      3.15725     0.07119     0.18298
H      3.74361     0.08024     0.94631
O      2.79884     1.44444     0.04082
H      1.87684     1.42887     0.36468
O     -1.32625    -2.56353     0.05115
H     -0.37622    -2.46676    -0.18909
O     -2.06352    -2.09574    -1.07207
H     -1.42793    -1.51350    -1.51487
O     -0.48264     0.30741    -1.84363
H      0.42648     0.56043    -2.11078
O     -1.22878     1.46932    -2.24043
H     -1.73471     1.60704    -1.42814
O      0.21380     1.27906     0.76688
H     -0.41687     0.70456     0.29193
O     -0.42351     1.56041     2.00613
H     -0.54089     0.67093     2.36667
O      1.87214     1.32703    -2.64154
H      2.54426     1.49580    -1.96352
O      1.61471     2.65238    -3.12443
H      0.66328     2.71952    -2.96853
O      1.12809    -1.62826    -0.12731
H      1.87079    -0.98573    -0.08525
O      1.46353    -2.50391     0.95120
H      0.90570    -2.14155     1.66063
O     -0.22141    -1.73199     2.92827
H     -0.54646    -2.41427     3.52547
O     -1.42465    -1.21118     2.36869
H     -1.48312    -1.72682     1.53405
O     -3.25743     0.94302     1.22606
H     -2.54348     1.39866     1.69532
O     -2.53373     0.50463     0.07434
H     -2.80372    -0.41864    -0.03983
