 28
-1061.6329750583425
O     -2.94682    -0.61155    -0.39697
H     -2.86108     0.12692    -1.01823
O     -2.45559    -1.70542    -1.16370
H     -1.66837    -1.96225    -0.65506
O      0.09065     0.13788    -1.39585
H     -0.32410     0.31517    -0.51087
O      0.88834     1.31937    -1.53869
H      0.18210     1.94916    -1.75518
O      2.66605    -1.21383     2.68522
H      2.89869    -0.44340     2.15044
O      1.25706    -1.23773     2.44277
H      0.55738    -2.05064     1.08408
O     -0.70052     0.93916     0.95301
H      0.12253     1.03581     1.45667
O     -1.33594    -0.12956     1.67359
H     -2.00546    -0.38790     1.00879
O     -1.43808     2.37628    -2.57869
H     -1.48045     2.74067    -3.47013
O     -2.18222     1.16322    -2.72349
H     -1.46615     0.51065    -2.74172
O      1.27370    -2.47052    -0.61009
H      1.16017    -1.65143    -1.10986
O      0.14805    -2.41079     0.27151
H      0.87522    -1.20399     3.32737
O      2.77452     1.26460     0.80347
H      2.19009     1.30630     0.02616
O      1.97555     1.93107     1.78945
H      2.45521     2.75695     1.91857
