 28
-1061.6445868816604
O      0.84358     1.97665    -2.03626
H      0.04056     1.50416    -1.74269
O      1.67985     0.88949    -2.45697
H      2.54325     1.23228    -2.17988
O      1.46590    -1.24717    -0.81988
H      1.48021    -0.46049    -1.40410
O      2.33100    -0.89196     0.26667
H      1.67607    -0.69205     0.95802
O      0.33965     0.24176     1.61274
H      0.67230     1.13531     1.41026
O      0.11103     0.28218     3.02355
H     -4.25494    -0.46205     1.63834
O     -1.52773    -2.65968    -0.95817
H     -1.61783    -1.92525    -1.58051
O     -0.88873    -1.99261     0.13380
H      0.03710    -1.93149    -0.18248
O     -1.16735     0.71665    -0.84346
H     -0.93771     0.10986    -0.11749
O     -2.16766     0.00039    -1.55767
H     -2.84095    -0.10077    -0.87102
O     -2.54865    -0.90351     2.28033
H     -2.07377    -1.50089     1.67787
O     -3.37323    -0.19613     1.35754
H     -0.84557     0.13702     3.02959
O      3.19667     1.61023    -0.27276
H      3.04638     0.68675     0.00166
O      2.05595     2.24996     0.32625
H      1.54464     2.42528    -0.48624
