 36
-1364.9729253087207
O      0.81835     2.01765     0.25033
H      1.73802     1.77066     0.01860
O      0.89714     2.12437     1.67408
H     -0.04582     2.00638     1.88370
O     -1.49320    -2.16946    -0.37715
H     -1.53059    -2.65684     0.45601
O     -2.66235    -1.34589    -0.29382
H     -2.80347    -1.16496    -1.23587
O      1.71510    -0.44071     1.95941
H      1.59865     0.52535     2.03010
O      0.67204    -0.95221     2.80330
H     -0.11044    -0.53739     2.38773
O      3.70981     1.26816    -1.58169
H      4.62900     1.30000    -1.30833
O      3.10272     0.79099    -0.38374
H      2.73210    -0.06977    -0.67814
O     -1.06184     0.18259     1.17389
H     -1.76599    -0.29201     0.67429
O     -1.68481     1.35284     1.71678
H     -1.95853     1.81595     0.88663
O     -1.21943     3.45328    -0.73948
H     -0.43559     3.00573    -0.36795
O     -2.18337     2.40926    -0.63485
H     -2.02039     1.88511    -1.44033
O      1.59275    -1.30695    -1.04607
H      1.18078    -1.91935    -0.40809
O      0.55464    -0.38929    -1.33663
H      0.34720     0.01338    -0.46992
O     -1.87762     0.89127    -2.84643
H     -1.61989     1.18193    -3.72768
O     -1.63736    -0.51230    -2.87734
H     -0.77901    -0.57052    -2.40646
O      0.90834    -3.66910     0.77987
H      1.26791    -4.53029     1.02260
O     -0.03898    -3.43222     1.82106
H      0.38015    -2.67995     2.28937
