 32
-1213.3061346022498
O      2.51684    -1.34748    -1.51234
H      1.58113    -1.46665    -1.78291
O      2.45045    -1.70593    -0.13212
H      3.06731    -2.44195    -0.08366
O     -0.01107    -1.94280     0.85888
H      0.86073    -1.78190     0.44191
O      0.18908    -1.35089     2.14366
H     -0.72430    -1.13571     2.38166
O     -0.02099    -1.17959    -2.26314
H     -0.93132    -1.27048    -1.91557
O      0.15086     0.22661    -2.04688
H      0.76082     0.49106    -2.74791
O      1.65618     2.02166     0.73018
H      2.42476     1.76173     0.19330
O      1.27227     3.23264     0.04609
H      0.33351     3.26906     0.27418
O     -2.53401    -1.70307     0.08563
H     -1.60444    -1.88659     0.33976
O     -2.34601    -0.73699    -0.94707
H     -1.91929    -0.01261    -0.44518
O      2.38642     1.88740    -2.50486
H      1.85080     2.49856    -1.97808
O      3.18950     1.30031    -1.47330
H      2.97969     0.35526    -1.57146
O     -1.00896     0.96150     0.57005
H     -0.05975     0.92664     0.78811
O     -1.48900     2.06084     1.35071
H     -2.15640     1.61058     1.89052
O     -3.44329    -0.11199     2.06948
H     -3.27018    -0.66063     1.26939
O     -2.64277    -0.77973     3.04803
H     -3.26769    -1.38620     3.45687
