 36
-1364.9712643506084
O      3.03393     1.22519    -2.34348
H      3.71372     1.86632    -2.56714
O      3.64849     0.57186    -1.22671
H      3.03074     0.82275    -0.49888
O     -3.58587     1.07750    -1.40075
H     -2.61729     1.01877    -1.53763
O     -3.87362    -0.23955    -0.93395
H     -4.38832    -0.61567    -1.65517
O      3.46169    -3.24742    -1.58330
H      2.62913    -3.40020    -1.11748
O      3.14830    -2.04542    -2.30280
H      3.77365    -1.40685    -1.92713
O      1.38705    -0.22950     1.02042
H      1.25983    -0.68014     0.16274
O      1.80904     1.08784     0.63040
H      0.97732     1.47660     0.26853
O     -2.02140    -1.66197     1.52723
H     -1.55555    -0.98756     2.04171
O     -1.69088    -1.25887     0.20323
H     -2.54773    -0.91827    -0.13027
O     -2.57423     1.48062     1.28230
H     -3.48126     1.63750     0.98258
O     -2.43302     2.43224     2.35332
H     -1.63376     2.06807     2.76153
O     -0.52841     1.86389    -0.36585
H     -1.25892     1.67779     0.26715
O     -0.88050     1.02406    -1.47580
H     -0.24377     0.28643    -1.40486
O     -0.18706     0.01722     3.18568
H      0.47988    -0.05424     2.47004
O     -0.12084     1.41043     3.48023
H      0.02005     1.38829     4.43079
O      0.82234    -1.11041    -1.44634
H      1.63557    -1.37106    -1.93623
O      0.41997    -2.36207    -0.87966
H     -0.42084    -2.07933    -0.45499
