 28
-1061.6433076017784
O     -0.98197    -0.06997    -1.56975
H     -1.14676     0.17879    -0.64018
O     -0.23450     1.06203    -2.02361
H      0.66678     0.84938    -1.69528
O      0.98717    -0.74579     3.10186
H      0.94771    -1.35831     2.33834
O     -0.40549    -0.67515     3.43110
H     -0.44588    -1.20305     4.23800
O     -1.17216     1.09278     0.83949
H     -1.45873     1.97371     0.54996
O      0.15820     1.36379     1.29181
H      1.34994    -2.78446    -3.01567
O     -1.74364     3.12267    -1.12274
H     -1.18746     2.49317    -1.62448
O     -0.89232     4.26699    -1.06285
H     -1.40054     4.89934    -1.57766
O     -1.24591    -2.21957     1.16023
H     -1.30910    -1.52904     1.83506
O      0.17570    -2.42059     1.14746
H      0.33000    -2.52924     0.19155
O      0.19465    -2.47287    -1.56618
H     -0.21378    -1.58876    -1.71492
O      1.47472    -2.33939    -2.17311
H      0.11990     1.01277     2.19499
O      2.05957    -0.22067     0.20235
H      1.36696     0.38163     0.51890
O      2.08981     0.06798    -1.19879
H      2.04179    -0.83709    -1.55558
