 16
-606.6416654265576
O     -2.22481     0.11818     0.59621
H     -3.08045     0.56111     0.60527
O     -1.37749     1.04987     1.26374
H     -0.81539     1.35048     0.53136
O      1.81437    -0.81744     0.81818
H      1.96733    -0.00688     0.30860
O      1.25447    -0.33392     2.04000
H      0.30305    -0.36999     1.86414
O      1.27561     0.83802    -1.52689
H      0.61850     0.10757    -1.59252
O      0.44058     1.87859    -1.00583
H      0.37876     2.47386    -1.75769
O     -0.62403    -0.98457    -1.24600
H     -1.28914    -0.68921    -0.59800
O     -0.07663    -2.12181    -0.57357
H      0.65544    -1.70883    -0.07549
