 36
-1364.9811126485185
O     -0.01332    -0.95613     1.76093
H     -0.48821    -0.57801     0.98210
O      1.18278    -0.17511     1.77024
H      0.82721     0.70356     2.03452
O     -1.13824    -0.30605     4.08743
H     -0.74382    -0.68973     3.28035
O     -2.20663     0.44246     3.48758
H     -2.80668     0.53898     4.23372
O     -0.30570     1.93621     2.39355
H     -1.04323     1.57604     2.92916
O     -0.98695     2.42880     1.23088
H     -1.28356     1.60611     0.80234
O     -0.14362     1.30213    -2.35143
H      0.51866     1.88243    -1.91574
O      0.61660     0.12437    -2.62320
H     -0.08301    -0.49188    -2.93540
O     -1.85533    -2.03529    -2.11292
H     -0.99131    -2.30446    -1.71317
O     -1.38890    -1.48092    -3.34079
H     -1.46109    -2.22370    -3.94665
O      0.54730    -2.54454    -1.23523
H      1.39513    -2.06474    -1.04836
O      0.39341    -3.37132    -0.08706
H      0.36313    -2.70575     0.61475
O      2.57667     2.85649    -0.15422
H      2.86897     1.96526    -0.39540
O      1.25341     2.84930    -0.68926
H      0.70221     3.02805     0.08782
O      2.83750     0.11757    -1.12181
H      2.07454     0.09933    -1.73054
O      2.57998    -1.07713    -0.37574
H      2.26033    -0.71296     0.47332
O     -1.25370     0.12519    -0.27695
H     -0.93013     0.58636    -1.09487
O     -2.65563    -0.01167    -0.49468
H     -2.62677    -0.77199    -1.10150
