 16
-606.6344067783202
O     -1.62896     1.38233     1.45447
H     -0.70389     1.43356     1.72799
O     -1.54063     0.40308     0.41719
H     -1.19112     0.93064    -0.32824
O      1.03632     0.00167     1.31645
H      0.31753    -0.49707     0.89428
O      1.93691    -1.04130     1.68425
H      1.83525    -1.04409     2.64296
O      1.08962     1.73572    -1.19131
H      1.23234     1.12805    -0.44930
O     -0.18274     1.31701    -1.69105
H      0.04684     0.67187    -2.37303
O     -0.93396    -1.87250    -1.46472
H     -1.45615    -1.31590    -0.86672
O      0.38446    -1.49035    -1.05791
H      0.75250    -2.31345    -0.71653
