 16
-606.6386396729421
O     -2.49693     0.08434     0.44700
H     -2.59052    -0.27281     1.33679
O     -2.05837     1.42319     0.69089
H     -1.16808     1.39898     0.31079
O      2.61645    -0.88203     1.77071
H      2.84010    -0.29931     2.50321
O      1.42035    -0.26744     1.27364
H      1.73269     0.16231     0.45980
O      1.19522     0.76363    -1.41477
H      0.51262     0.06476    -1.54629
O      0.38214     1.82956    -0.91704
H      0.18695     2.32120    -1.72021
O     -0.81129    -0.97917    -1.32855
H     -1.54150    -0.65448    -0.76431
O     -0.26963    -2.02359    -0.52808
H      0.20072    -1.52882     0.15771
