 24
-909.97193936575
O     -2.12456     0.57530    -0.43807
H     -1.27771     0.84416    -0.86646
O     -2.19657    -0.80452    -0.76890
H     -2.95769    -0.81688    -1.35529
O      0.93491    -2.21173    -2.25418
H      0.80105    -2.44599    -3.18077
O     -0.16532    -2.84443    -1.60867
H     -0.70533    -2.08065    -1.35583
O      0.22205     1.38278    -1.42331
H      0.67143     1.81384    -0.65916
O      1.32405     0.79731    -2.11390
H      1.24196    -0.13536    -1.87158
O      0.67194    -0.84173     0.61576
H      0.01315    -0.60262     1.28856
O      1.12766    -2.13196     1.05418
H      0.89068    -2.66520     0.28343
O     -1.11654     1.89403     2.38523
H     -1.19841     1.95056     3.34095
O     -1.45011     0.51977     2.17453
H     -1.93021     0.58786     1.32985
O      2.19631     1.53124     1.40962
H      2.07742     0.70282     0.92354
O      1.13428     2.32881     0.88608
H      0.42639     2.20633     1.54248
