 28
-1061.6473376770134
O     -0.37337     0.63972    -1.93835
H     -0.55365    -0.33055    -1.96845
O     -1.00242     1.00138    -0.70094
H     -0.33052     1.58236    -0.29346
O      2.12389    -0.39721     0.81821
H      2.35569    -0.28372    -0.11974
O      0.93035    -1.17482     0.71478
H      0.30828    -0.72003     1.32198
O     -1.13830     1.23424     2.42572
H     -0.28702     1.64229     2.63276
O     -0.78842    -0.15562     2.50465
H      0.41583    -2.13163    -0.62123
O      2.14659     1.42878    -2.05599
H      1.19923     1.17283    -2.12977
O      2.72348     0.16461    -1.74102
H      3.26897    -0.00909    -2.51284
O     -2.92894    -1.92304     0.30363
H     -3.84967    -2.13240     0.11521
O     -3.02899    -0.60685     0.83221
H     -2.48717    -0.09756     0.20692
O     -1.10497    -1.87705    -1.69547
H     -1.72721    -2.06278    -0.97077
O      0.03103    -2.66475    -1.33980
H     -1.66532    -0.55774     2.44067
O      1.00064     2.46757     0.37434
H      1.75837     2.39176    -0.22683
O      1.52581     2.06173     1.64157
H      1.77046     1.12861     1.46663
