 32
-1213.3127578918395
O      3.17865     0.17480    -0.26247
H      2.75040    -0.57517     0.20792
O      3.61893     0.97454     0.82608
H      2.77742     1.21965     1.24168
O      1.70252    -1.54940     1.11278
H      1.11172    -0.98557     1.66750
O      0.76640    -2.24293     0.28296
H      1.16514    -2.13505    -0.61087
O     -2.37053     1.16718    -1.57929
H     -2.44591     0.33502    -1.08356
O     -2.77957     2.11633    -0.59644
H     -3.65694     2.36976    -0.90101
O      0.04471     0.18255     2.22259
H     -0.87614     0.55036     2.25615
O      0.77138     1.24851     1.59484
H      0.53528     1.14196     0.64816
O      1.16952    -0.89117    -2.83264
H      0.95968    -0.24963    -2.12933
O      1.86064    -1.90776    -2.10096
H      2.77079    -1.80388    -2.39743
O      0.40925     1.00393    -1.03847
H     -0.35839     1.44655    -1.43976
O      1.46442     1.94265    -1.25964
H      2.21774     1.36696    -0.99252
O     -2.36673     1.19848     1.90343
H     -2.52391     1.58583     1.02453
O     -3.34918     0.16035     1.93679
H     -2.81259    -0.59759     1.65432
O     -1.77145    -1.75651     0.71459
H     -0.79411    -1.90866     0.67893
O     -2.07740    -1.67512    -0.67913
H     -2.17181    -2.60166    -0.92133
