 36
-1364.9778282900788
O     -0.86034     3.28811     0.11826
H     -0.50897     2.75482    -0.62727
O      0.31442     3.95956     0.56698
H      0.20723     4.84493     0.20596
O     -3.10623    -1.50178    -0.51078
H     -2.66596    -1.20646     0.29809
O     -2.57318    -2.82447    -0.66905
H     -2.31038    -2.79280    -1.60115
O      0.16875    -1.61093     0.75588
H      0.89396    -1.27642     0.17887
O     -0.05859    -2.91590     0.22615
H     -1.03081    -2.89688     0.08907
O      1.98995    -0.23056    -2.00003
H      1.55406    -1.06708    -2.28248
O      2.19756    -0.53077    -0.61078
H      2.26911     0.37147    -0.23366
O     -1.62301     0.65294     0.80547
H     -1.74348     1.59578     1.00985
O     -2.10576    -0.01067     1.97235
H     -1.32281     0.11427     2.54808
O     -0.94595     0.44237    -1.72187
H     -1.20025     0.37463    -0.77853
O      0.01483     1.50287    -1.68829
H      0.83572     1.00036    -1.90207
O      1.90255     1.78601     0.63053
H      1.54853     2.69947     0.64114
O      3.02804     1.84346     1.50633
H      2.84491     1.08231     2.07627
O      0.56808    -2.43653    -2.33900
H      0.42474    -2.82933    -1.45374
O     -0.75408    -2.04484    -2.71055
H     -0.80065    -1.12610    -2.37958
O      1.10067    -0.39311     2.98440
H      0.70246    -0.97803     2.31002
O      0.24728     0.75728     2.93064
H      0.51691     1.16224     2.09357
