 24
-909.976110999289
O     -1.88002     0.79623    -0.48327
H     -1.98631     0.02279     0.11718
O     -2.18416     0.20823    -1.74441
H     -2.81903     0.83675    -2.09592
O      0.35263    -1.90294    -2.08687
H      0.07371    -1.84873    -1.15710
O      0.29986    -0.53868    -2.50468
H     -0.64149    -0.31376    -2.39262
O      2.97706     1.29927    -1.80418
H      2.35299     1.91007    -1.39077
O      2.55929     0.05376    -1.24222
H      1.85262    -0.24650    -1.86105
O     -1.65352    -1.23687     1.17685
H     -1.41214    -1.11012     2.11691
O     -0.39933    -1.59641     0.58430
H      0.12767    -0.78626     0.74638
O     -0.77760     0.78140     3.09839
H      0.04037     0.79752     2.58516
O     -0.72264    -0.56313     3.57749
H     -1.07432    -0.46441     4.46530
O      1.09464     0.58343     0.87026
H      1.80215     0.32752     0.22955
O      0.57084     1.73767     0.18788
H     -0.27989     1.39174    -0.13872
