 24
-909.9805353577638
O     -2.06200    -2.15759    -0.40473
H     -1.32423    -1.73697    -0.88871
O     -2.52242    -1.07589     0.40121
H     -1.87550    -1.05681     1.12596
O      1.16701    -1.56076    -0.66275
H      0.86700    -1.38964     0.24824
O      0.12241    -0.94211    -1.42428
H      0.28986     0.00184    -1.23337
O      3.27854    -0.06381    -1.47163
H      2.61407    -0.70417    -1.15174
O      3.46492     0.73834    -0.29799
H      4.31974     1.14172    -0.48259
O     -2.23261     1.95661     0.05627
H     -3.00276     2.52641    -0.01232
O     -2.40324     1.09396    -1.07510
H     -2.56610     0.23388    -0.61374
O      0.59660    -0.61885     1.84749
H      0.57406     0.33112     1.58755
O     -0.70736    -0.77491     2.39232
H     -0.51925    -1.25633     3.20215
O      0.94218     1.42973    -0.54083
H      1.89151     1.31875    -0.32165
O      0.36696     1.76404     0.72655
H     -0.56262     1.93446     0.47138
