 36
-1364.975068674894
O      1.65456     1.07741     2.16265
H      1.84485     1.11535     3.10722
O      2.94199     0.94216     1.55322
H      2.77474     0.15035     1.00792
O     -1.54679    -1.84557     1.11646
H     -1.72329    -1.42376     0.25234
O     -0.41335    -1.08726     1.54469
H     -0.81933    -0.44554     2.16859
O     -1.01307     1.80322     3.37220
H     -1.02365     2.00567     2.41114
O     -1.54426     0.48094     3.34526
H     -2.46644     0.60380     3.58885
O      1.25434    -1.50304    -0.91204
H      0.95274    -2.42399    -0.80782
O      1.90125    -1.29049     0.34481
H      1.10991    -1.23870     0.91675
O      0.31590     2.28120     0.24484
H      0.83177     1.94128     1.01201
O     -1.02203     2.18470     0.74509
H     -1.42100     1.55923     0.10299
O     -1.65040    -0.73725    -1.34692
H     -0.67767    -0.67433    -1.40513
O     -2.02075     0.62040    -1.15714
H     -2.02762     0.97973    -2.07366
O      0.67056     0.96988    -2.04086
H      0.61110     1.50375    -1.21582
O      2.08015     0.83040    -2.22564
H      2.17153    -0.09696    -1.96719
O     -0.71138     1.63506    -4.19704
H     -0.12197     1.40311    -3.44351
O     -1.92100     1.92425    -3.48112
H     -1.94845     2.88532    -3.50334
O      0.14807    -3.85524    -0.11057
H     -0.45364    -3.46159     0.54394
O      1.05364    -4.58616     0.71080
H      0.87364    -5.48433     0.41988
