 36
-1364.977340038879
O      1.84770     0.89991     0.62227
H      2.40966     0.60902    -0.12214
O      1.80353    -0.31403     1.37727
H      1.56568     0.00414     2.26513
O     -3.18403     1.00070    -3.15192
H     -4.12081     1.10860    -2.96645
O     -2.67629     0.75465    -1.84287
H     -2.13046     1.56877    -1.69115
O     -0.45803    -0.01258     3.84941
H     -0.58005    -0.60711     3.07469
O      0.95724     0.12499     3.87783
H      1.21095    -0.46858     4.59045
O      2.49644    -1.52899    -1.47169
H      1.60372    -1.13787    -1.60438
O      3.27261    -0.33242    -1.32524
H      3.68389    -0.24266    -2.19142
O     -0.87070    -1.41493     1.65041
H     -0.20108    -1.98331     1.19923
O     -1.32327    -0.58269     0.57433
H     -1.32896     0.30834     0.99295
O     -0.13809     2.59025     1.19990
H      0.57722     1.93865     1.02362
O     -1.18389     1.78598     1.75597
H     -0.91378     1.67180     2.68156
O     -0.76904    -1.13382    -2.26091
H     -1.57622    -0.57935    -2.18338
O      0.15006    -0.32304    -1.53003
H     -0.27074    -0.38686    -0.63677
O     -0.99146     2.74962    -1.35684
H     -0.75052     2.94017    -0.42797
O      0.27712     2.35161    -1.90435
H      0.21289     1.38080    -1.87341
O      0.19976    -3.79464    -0.51704
H     -0.38226    -3.14016    -0.92831
O      0.87550    -3.02383     0.46950
H      1.70276    -2.76159     0.02965
