 24
-909.9776904107042
O      0.02020    -1.70953     1.49282
H      0.31908    -1.69040     0.56909
O     -1.33430    -1.28362     1.39313
H     -1.66129    -1.83763     0.66123
O     -1.89452    -2.08015    -1.10239
H     -2.38525    -1.28773    -1.37722
O     -1.25414    -2.51190    -2.30166
H     -0.38616    -2.09040    -2.22426
O      1.36931     0.51738     2.19568
H      0.80789    -0.28458     2.19449
O      2.55900    -0.00487     1.59642
H      3.22342     0.26903     2.23488
O     -1.26545     1.16956    -1.24354
H     -0.92531     1.88885    -0.66095
O     -2.36521     0.65733    -0.49252
H     -1.92889     0.37994     0.32610
O      1.90901     0.40578    -0.99147
H      2.26553     0.15943    -0.12138
O      0.81319    -0.50584    -1.09842
H      0.05794     0.11267    -1.20845
O      0.99190     2.86743    -0.25935
H      1.34572     2.05759    -0.66958
O      0.04941     2.34577     0.67431
H      0.58816     1.77306     1.25274
