 36
-1364.9766307038904
O      0.92027     1.30068    -3.08143
H      1.01529     0.34280    -2.89655
O      2.23149     1.78988    -2.81841
H      2.12300     2.16128    -1.93091
O     -2.24801    -1.94020     0.08732
H     -1.67495    -1.62864    -0.64674
O     -1.24579    -2.37313     1.01087
H     -1.26993    -1.67037     1.70348
O      1.71725    -3.42865     0.48511
H      1.85236    -4.33025     0.79183
O      0.64366    -3.56496    -0.44469
H     -0.09235    -3.18442     0.08203
O      0.79009    -1.22570    -2.17143
H      1.10454    -1.96146    -1.62217
O     -0.44424    -0.89692    -1.53350
H     -0.23378    -0.07751    -1.02173
O     -0.72091     2.45491    -1.35154
H     -0.19683     2.06830    -2.08964
O     -0.40538     1.47671    -0.35062
H     -1.26441     1.40632     0.11557
O     -3.54968     0.17465     1.14460
H     -3.18709    -0.61480     0.69115
O     -2.92994     1.22657     0.41413
H     -3.64103     1.55994    -0.14438
O      2.26578     2.82960     1.01666
H      2.48559     3.63004     1.50588
O      1.76639     3.36218    -0.21226
H      0.82410     3.14009    -0.15009
O     -0.43780     0.53601     2.54052
H      0.31415    -0.02433     2.25447
O     -1.40240    -0.47453     2.87744
H     -2.22683     0.00203     2.70317
O      2.12427    -0.26367     0.46976
H      2.04354     0.65154     0.77630
O      1.51475    -0.97479     1.55082
H      1.59239    -1.89303     1.22814
