 28
-1061.6417324165322
O     -2.95551    -1.85642     0.18647
H     -3.58218    -2.54933     0.41384
O     -1.73994    -2.39683     0.69952
H     -1.15542    -2.27439    -0.07813
O     -0.02613    -0.04239     1.27129
H     -0.88479     0.41448     1.12120
O     -0.26785    -0.82433     2.44095
H     -0.71855    -1.57360     2.02397
O      3.52082    -0.47597    -0.33815
H      3.44011     0.19753     0.35165
O      2.20272    -0.42486    -0.88764
H     -1.44270    -0.67697    -1.87779
O      0.69820     1.39794    -2.34730
H      0.17171     0.57897    -2.39825
O      0.21993     1.96853    -1.13061
H      0.99378     1.89454    -0.54563
O     -2.45733     0.77866     0.57088
H     -2.85398    -0.10829     0.58913
O     -2.18885     0.88590    -0.83381
H     -1.37423     1.42812    -0.85576
O     -0.05045    -1.76604    -1.24091
H      0.73380    -1.24665    -0.96799
O     -0.61654    -0.97758    -2.28861
H      2.30922     0.09018    -1.70270
O      2.01630     1.62647     1.20079
H      1.35939     0.92029     1.39847
O      2.43769     2.01347     2.50640
H      1.96720     2.84503     2.61289
