 28
-1061.645527112501
O     -1.17157     0.62996    -1.17350
H     -0.95153     1.38502    -0.58633
O     -0.82010     1.15981    -2.45279
H     -1.67976     1.22552    -2.87653
O      0.28204    -1.05578     1.95670
H      0.25746    -0.41206     2.68682
O     -1.03767    -0.84851     1.42784
H     -0.98465    -1.37334     0.60111
O     -0.34042     1.21108     3.26735
H      0.19580     1.77787     2.67917
O     -1.63120     1.41410     2.65879
H      1.30179    -0.69844     0.63640
O     -0.66220     2.69773     0.49932
H     -1.27009     2.52964     1.24248
O      0.58850     2.48823     1.17034
H      1.03062     1.84510     0.57526
O     -0.47056    -3.70810    -0.42774
H     -1.27709    -4.22300    -0.51899
O     -0.95290    -2.41146    -0.77260
H     -0.40090    -2.19306    -1.54449
O      1.87696     0.80053    -0.41859
H      1.79001     0.73303    -1.38485
O      1.95313    -0.59312    -0.09076
H     -1.69985     0.56609     2.18566
O      1.21655    -1.59167    -2.40471
H      1.66025    -1.49394    -1.53956
O      1.40983    -0.26452    -2.90782
H      0.50186     0.07777    -2.90362
