 28
-1061.6443766389152
O     -0.48984     0.43769    -1.66806
H     -0.16370     0.98283    -0.91693
O      0.71387    -0.18826    -2.13223
H      0.66365    -1.07992    -1.71334
O     -0.01151    -0.49729     1.83231
H     -0.65220    -0.91998     1.22640
O      1.20828    -1.16106     1.54977
H      1.66508    -0.49786     1.01263
O      0.55426     1.95161     0.23504
H      1.45205     2.24090     0.00053
O     -0.19667     3.17419     0.24404
H      0.86353    -2.57411     0.06559
O     -2.51730     1.31959     1.69343
H     -3.11747     1.08065     2.40518
O     -1.37489     1.77283     2.41955
H     -0.76927     1.01684     2.29229
O     -2.08722    -1.12044     0.30421
H     -2.45096    -0.22477     0.36723
O     -2.23609    -1.42766    -1.08301
H     -1.65836    -0.73664    -1.47826
O     -0.24683    -3.43895    -1.23000
H     -1.01943    -2.84974    -1.22350
O      0.80480    -2.52597    -0.90177
H     -0.56753     3.11943     1.13347
O      2.83146     1.21591    -1.23269
H      2.12065     0.68169    -1.64853
O      3.21212     0.37994    -0.14225
H      4.10462     0.11433    -0.38796
