 36
-1364.9737585990981
O      1.06031     2.93180    -0.29298
H      1.84262     3.30082    -0.71415
O      1.39088     3.00398     1.09535
H      1.37067     2.05510     1.32797
O     -3.21822    -0.79945    -1.53837
H     -2.72842    -0.07173    -1.97300
O     -3.52245    -0.22783    -0.25545
H     -3.29519    -0.97683     0.31749
O      2.23090    -2.01306     1.66963
H      1.87330    -2.33561     0.82459
O      3.62331    -1.93931     1.38283
H      3.98500    -2.57549     2.00630
O     -0.28106     0.76814    -2.14822
H     -0.36507    -0.19303    -1.99540
O     -1.61140     1.11534    -2.55696
H     -1.77753     1.85608    -1.94126
O     -1.63823    -1.89482     2.12157
H     -0.93292    -1.28687     1.81280
O     -2.16475    -2.31975     0.85462
H     -2.47306    -3.20694     1.05849
O     -1.64975     2.68369    -0.41337
H     -0.70044     2.87027    -0.29409
O     -1.87103     1.69210     0.59985
H     -2.58272     1.13525     0.20680
O      2.27213     0.26088    -0.85760
H      1.63103     0.98660    -0.93540
O      3.36210     0.86618    -0.16467
H      3.61691     0.14434     0.42072
O      1.06271     0.40538     1.76511
H      1.60993    -0.39509     1.84070
O     -0.00219    -0.14746     0.97731
H     -0.58819     0.63337     0.80784
O      1.04612    -2.11463    -1.00008
H      1.48048    -1.24097    -1.08949
O     -0.25001    -1.84660    -1.52476
H     -0.81954    -2.06101    -0.76778
