 40
-1516.6440109793812
O      2.05816     3.55553    -1.74499
H      2.38889     4.37706    -2.11972
O      0.71499     3.89602    -1.41366
H      0.23457     3.15609    -1.83741
O      1.13927    -0.45451    -0.14592
H      1.84781     0.23468    -0.04192
O      1.17951    -1.13984     1.11645
H      1.28764    -2.05163     0.80178
O     -0.52415    -1.83763    -1.66030
H      0.02251    -1.21742    -1.13570
O     -1.27634    -0.95526    -2.48678
H     -2.13566    -0.99640    -2.01643
O     -2.87402    -0.02156     0.32250
H     -2.28590     0.57304    -0.19074
O     -3.08139    -1.12186    -0.56377
H     -2.75065    -1.87002    -0.02935
O     -0.42902     1.55058    -2.02178
H     -0.71516     0.65135    -2.30442
O     -1.15372     1.68493    -0.79537
H     -0.42631     1.74964    -0.13418
O      2.92956     1.56288    -0.14287
H      2.70976     2.34485    -0.68057
O      3.40798     2.13282     1.07535
H      2.58331     2.19135     1.57464
O      0.41331     3.65359     1.31754
H      0.49696     3.88685     0.37724
O      0.50381     2.22514     1.18238
H     -0.08092     1.89112     1.88519
O     -1.82525    -0.72339     2.66862
H     -2.33789    -0.42488     1.89162
O     -0.68420     0.12954     2.58312
H     -0.04038    -0.45988     2.14767
O      1.02121    -3.78426    -0.14461
H      0.79884    -4.66887     0.16919
O      1.54918    -4.01501    -1.44859
H      0.91683    -3.50247    -1.97342
O     -1.80210    -3.14364     0.65255
H     -1.06877    -3.08480     0.01623
O     -1.08594    -3.19758     1.89168
H     -1.38321    -2.36367     2.31346
