 40
-1516.641605370203
O      1.90368     1.00045     0.79368
H      2.19455     0.29199     1.43095
O      0.61380     0.49455     0.45081
H      0.84168    -0.16231    -0.24553
O     -1.37867     0.61937    -2.20335
H     -1.29276     1.59723    -2.28576
O     -2.40456     0.46229    -1.21883
H     -2.19178     1.16237    -0.56119
O     -1.78280     2.20334     0.68443
H     -0.88161     2.53649     0.79807
O     -2.32707     2.20997     2.00219
H     -2.16064     1.28847     2.28761
O      2.55761    -1.07734     2.26960
H      2.14966    -1.93332     2.03439
O      1.97826    -0.81220     3.55042
H      1.03505    -0.74324     3.31356
O     -1.13326     3.23619    -2.05513
H     -1.72092     3.97778    -2.23049
O     -0.22066     3.30398    -3.15815
H      0.56438     2.93987    -2.70658
O      1.67571     2.01767    -1.71292
H      2.03316     1.73960    -0.84394
O      2.49651     1.35115    -2.66956
H      2.03648     0.50874    -2.77341
O     -0.00760    -1.68498    -2.15078
H     -0.43733    -0.80798    -2.24176
O      1.16286    -1.35315    -1.40458
H      1.37090    -2.20250    -0.95548
O     -2.32677    -1.68364     0.37526
H     -2.33142    -0.95708    -0.28340
O     -1.10837    -2.37279     0.13704
H     -0.95827    -2.31446    -0.82835
O      1.07892    -3.15091     1.37256
H      0.19123    -2.82885     1.10268
O      1.61284    -3.50818     0.10160
H      1.63775    -4.46884     0.15082
O     -1.86925    -0.38462     2.64916
H     -2.27970    -0.95004     1.96621
O     -0.50458    -0.73298     2.45710
H     -0.26078    -0.18402     1.68253
