 36
-1364.9752302983152
O      3.76598    -1.17915     1.71886
H      4.59393    -1.55206     1.40172
O      3.44792    -0.28801     0.65174
H      2.61283    -0.66230     0.29212
O     -2.56868    -0.64283     2.94348
H     -2.90770    -1.21882     3.63460
O     -3.11688    -1.22894     1.76446
H     -2.36997    -1.79887     1.46625
O      2.81980     2.07357     1.79987
H      3.12838     1.22078     1.41783
O      2.53609     2.83372     0.62820
H      3.31551     3.39088     0.53676
O     -2.81182    -0.59549    -1.43886
H     -2.29344    -0.27056    -2.20868
O     -2.69080     0.51189    -0.53499
H     -2.95340     0.09468     0.30014
O     -1.07819     0.07247    -3.34341
H     -0.17688    -0.16776    -3.07937
O     -0.95763     1.43597    -3.76257
H     -0.76387     1.87963    -2.91884
O     -1.03479    -2.46390     0.74669
H     -0.29608    -1.82511     0.76370
O     -1.25454    -2.65133    -0.65063
H     -1.93252    -1.97622    -0.85659
O     -0.38637     2.34067    -1.22836
H     -0.97996     1.73156    -0.76240
O      0.86209     1.66988    -1.10393
H      1.36328     2.22942    -0.47658
O      0.06299     1.05606     1.68098
H      0.79584     1.47749     2.15407
O      0.03463    -0.24871     2.26980
H     -0.87646    -0.28000     2.61055
O      0.88514    -1.48894    -1.82869
H      0.16909    -2.11285    -1.61128
O      1.04652    -0.89840    -0.53582
H      0.81331     0.04210    -0.71270
