 32
-1213.3076863414421
O      3.10266     0.30242    -1.45758
H      3.49952    -0.05459    -2.25724
O      1.93848    -0.51542    -1.36029
H      1.24030     0.13183    -1.63658
O      1.45982    -1.08339     1.26165
H      1.71146    -0.87274     0.33795
O      0.68257     0.07118     1.59539
H     -0.23268    -0.29070     1.64307
O     -0.84429    -1.26639    -1.02535
H     -0.41789    -2.13495    -0.95908
O     -1.24001    -1.21635    -2.40265
H     -0.79272    -0.39922    -2.66874
O      0.99129     3.24832     1.17466
H      1.38822     3.33419     2.04623
O      1.77803     2.23523     0.55445
H      1.40006     1.41166     0.94565
O      0.15469    -3.56631     0.39960
H      0.58966    -2.88982     0.94280
O     -1.05171    -3.77399     1.12391
H     -0.90065    -4.62192     1.55320
O      0.05672     1.23345    -1.92584
H     -0.56137     1.47872    -1.20143
O      0.69759     2.46831    -2.20958
H      1.32319     2.52495    -1.47176
O     -1.23190     2.15358     0.17117
H     -0.56405     2.66703     0.67207
O     -2.40322     2.26434     0.97831
H     -2.62133     1.33018     1.09169
O     -1.65864    -1.25625     1.89710
H     -1.60965    -2.20497     1.67877
O     -2.60432    -0.79222     0.92222
H     -2.07406    -0.85951     0.10131
