 36
-1364.9694823770517
O      1.08198    -0.33187     0.41140
H      0.42538     0.36657     0.18526
O      2.00967     0.38033     1.24507
H      1.60888     0.19958     2.11373
O     -0.78100    -0.29556    -3.06634
H      0.00547    -0.85420    -2.91471
O     -1.34149    -0.24645    -1.75178
H     -1.50082     0.70999    -1.62365
O      0.12836    -0.30372     3.08935
H     -0.49014    -0.73053     2.45554
O     -0.59215     0.89014     3.38275
H     -0.78687     0.77137     4.31731
O     -1.71890    -1.03250     1.36456
H     -2.46254    -0.45946     1.09679
O     -1.56452    -1.92912     0.26606
H     -1.35615    -1.31527    -0.47684
O     -0.16310     1.89180    -0.29133
H      0.48956     2.10779    -1.00405
O     -1.38120     2.29047    -0.91773
H     -1.87758     2.58526    -0.14375
O     -2.68155     2.07400     1.63817
H     -1.96845     1.61680     2.11604
O     -3.49686     0.97618     1.23343
H     -4.29332     1.09253     1.76323
O      2.38664    -0.76438    -1.88883
H      1.97614    -0.61070    -1.01079
O      1.45498    -1.68914    -2.47454
H      1.35363    -2.34701    -1.75652
O      1.82380     2.08781    -2.03110
H      2.11418     1.27661    -2.48567
O      2.93444     2.42686    -1.20403
H      2.76923     1.91615    -0.39765
O      1.53250    -3.12075    -0.21822
H      2.16337    -2.62786     0.31813
O      0.57830    -3.52282     0.77062
H     -0.18323    -2.95011     0.56081
