 40
-1516.647902950747
O      0.10446     2.40950     1.64712
H      0.05655     2.66540     0.70379
O      1.41600     1.85787     1.76063
H      1.24714     0.97192     2.15125
O     -0.16848     0.46020    -2.96392
H      0.08654     1.39789    -2.91164
O     -0.39199     0.21009    -1.57566
H      0.51650     0.27433    -1.20261
O      0.57981     2.85761    -2.03910
H      1.38487     2.54906    -1.57703
O     -0.29705     3.08072    -0.93252
H     -1.16021     2.83359    -1.30900
O     -2.61449     1.62671    -1.75989
H     -1.93670     0.91792    -1.75438
O     -3.79584     0.92346    -1.38217
H     -3.83071     1.10578    -0.43384
O     -2.56102     0.62711     1.28631
H     -2.28458    -0.19878     0.85211
O     -1.73524     0.64390     2.44625
H     -1.16328     1.41844     2.26638
O      0.68403    -3.00713    -0.14355
H      0.16434    -2.59064     0.56785
O      0.14254    -4.31703    -0.20451
H     -0.62817    -4.18152    -0.77573
O      1.19522    -0.60499     2.80105
H      1.91043    -1.21682     2.56640
O      0.10461    -1.26603     2.13853
H     -0.63363    -0.67976     2.41490
O     -1.91123    -2.43511    -1.52118
H     -1.13538    -1.88265    -1.70593
O     -2.62903    -1.61269    -0.60039
H     -3.22275    -1.10088    -1.17414
O      3.80220    -1.14708     0.73625
H      4.64092    -1.60626     0.61465
O      3.00230    -2.10618     1.41626
H      2.42991    -2.44217     0.70546
O      2.58056     1.74427    -0.58087
H      2.26545     1.93062     0.33146
O      2.13861     0.39038    -0.68145
H      2.80353    -0.08951    -0.15074
