 32
-1213.3048932108957
O      2.12070    -1.11702     4.13513
H      2.99133    -1.20156     4.53425
O      2.45659    -0.69980     2.81229
H      2.21170    -1.48809     2.29633
O     -0.88856    -0.67773    -2.08606
H     -0.01031    -0.49836    -1.68589
O     -1.51854    -1.49085    -1.08705
H     -2.37976    -1.04695    -0.98062
O     -2.99266     0.55713     0.37135
H     -2.61067     1.20830    -0.25770
O     -3.80472    -0.21411    -0.50390
H     -4.54410    -0.42562     0.07150
O     -1.96184     1.72790    -2.45523
H     -1.67791     0.79292    -2.45800
O     -1.48729     2.10592    -1.16248
H     -0.57607     2.39966    -1.35438
O      1.80994     2.35460    -0.25165
H      1.12494     1.82447     0.18461
O      1.06302     2.91777    -1.32498
H      1.26048     3.85416    -1.22917
O      2.75402     0.02363    -1.70676
H      2.84938     0.85195    -1.22475
O      1.55308    -0.45319    -1.08712
H      1.80147    -1.30276    -0.67697
O      0.95811    -2.36394     0.95721
H      0.19629    -1.78423     1.15481
O      0.60364    -2.99238    -0.27591
H     -0.21834    -2.54357    -0.54529
O      0.20119     0.52465     1.50984
H      0.83434     0.27878     2.20299
O     -0.78732    -0.50062     1.65836
H     -1.56212    -0.08962     1.23505
