 40
-1516.6461791513318
O     -0.08388     2.73848     2.43140
H      0.28324     2.80803     1.52174
O     -0.83160     3.94497     2.53488
H     -0.40725     4.35551     3.29417
O      2.63479    -0.95060    -1.53364
H      3.24366    -0.60484    -0.85022
O      2.45300    -2.30790    -1.12669
H      1.96255    -2.21553    -0.28777
O      0.11131     0.54504    -2.69291
H     -0.82453     0.80299    -2.54596
O      0.09963    -0.79968    -2.20218
H      1.07128    -0.96852    -2.11599
O     -1.92188     0.74819     2.18881
H     -1.31426     1.51095     2.29751
O     -1.39193     0.10887     1.03941
H     -0.47794    -0.14776     1.30713
O     -2.31204     1.33427    -1.87382
H     -2.80088     0.52496    -1.61088
O     -2.05680     2.00187    -0.62817
H     -1.94201     1.26446     0.01793
O      1.09308     1.34070    -0.35576
H      0.91024     1.12407    -1.30285
O      0.55574     2.65785    -0.18401
H     -0.36579     2.54387    -0.49756
O      3.23313     0.99520     1.19175
H      2.53975     1.22961     0.53675
O      4.11431     0.20854     0.39917
H      4.87849     0.78269     0.29546
O     -1.15953    -3.75817    -0.16666
H     -1.71831    -3.27670    -0.80740
O     -1.32891    -2.93945     0.99192
H     -1.86760    -3.49303     1.56744
O      1.01558    -0.81667     1.72706
H      1.92147    -0.47324     1.79252
O      1.21349    -2.16119     1.28801
H      0.28348    -2.46432     1.22170
O     -2.32729    -1.97757    -1.95670
H     -1.49400    -1.48728    -2.12300
O     -3.02436    -1.11158    -1.06974
H     -2.43966    -1.08925    -0.29669
