 32
-1213.3091165139504
O      2.41268    -0.57335     1.76006
H      2.20505    -0.95597     0.87380
O      1.36136    -1.11345     2.55724
H      1.68597    -1.98817     2.79201
O      2.01488    -0.62917    -1.45373
H      1.67311     0.16792    -0.98474
O      1.61751    -1.66529    -0.53984
H      0.77581    -1.93575    -0.95445
O     -3.00970    -1.85494    -2.78643
H     -3.81278    -2.19388    -3.19276
O     -3.28875    -2.02427    -1.39359
H     -3.09454    -1.11948    -1.07534
O      0.85296     1.25654    -0.06089
H     -0.08171     1.30515    -0.37681
O      1.38023     2.55074    -0.38997
H      1.42327     2.89693     0.51439
O     -0.43478    -1.84924    -2.21616
H     -1.35296    -2.04144    -2.49959
O     -0.05049    -0.86575    -3.19540
H      0.86646    -0.72560    -2.90243
O      1.17023     2.75441     2.28001
H      1.04662     3.48235     2.89506
O      2.50001     2.33086     2.57377
H      2.47247     1.45556     2.15934
O     -2.53177     0.34439    -0.39644
H     -2.04157     0.18437     0.44125
O     -1.50764     0.92624    -1.21159
H     -1.23806     0.19029    -1.78698
O     -1.03631    -0.20186     1.73059
H     -0.17493    -0.60708     1.96225
O     -1.17126     0.82790     2.70449
H     -0.40701     1.38140     2.48864
