 36
-1364.9768422328611
O      1.23347    -0.15079     0.48482
H      0.48092     0.40812     0.19462
O      2.07500     0.75571     1.19177
H      1.49704     0.97026     1.95009
O     -1.36909    -1.18575    -0.90383
H     -0.63047    -1.25983    -1.53935
O     -1.40288     0.23070    -0.72730
H     -2.03275     0.33073     0.01319
O     -1.17331     0.31275     3.17556
H     -0.94071    -0.53331     2.76301
O     -0.10032     1.15545     2.77645
H     -0.50096     1.71495     2.09288
O     -0.86889    -2.21162     1.50983
H     -1.15692    -1.94550     0.61153
O      0.48978    -2.58191     1.26354
H      0.88422    -1.72640     0.99977
O     -0.08818     2.57101     0.20981
H      0.55863     2.59912    -0.53407
O     -1.25319     3.13283    -0.40294
H     -1.50010     2.40507    -0.99152
O     -3.05906     0.93577     1.22744
H     -2.91960     0.82743     2.18329
O     -3.69394     2.20935     1.11442
H     -2.95369     2.76273     0.82696
O      1.91800    -0.57919    -2.38681
H      2.07391    -0.58736    -1.43033
O      0.79006    -1.44518    -2.50672
H      1.17203    -2.33891    -2.35997
O      1.48882     2.26098    -1.88076
H      1.51259     1.46555    -2.44088
O      2.84135     2.41441    -1.44527
H      2.80117     2.04975    -0.54948
O      1.53557    -3.83611    -1.56062
H      1.64149    -4.72410    -1.91526
O      0.20030    -3.89408    -1.04651
H      0.34298    -3.58688    -0.12388
