 32
-1213.3099395512731
O      3.53797     0.31837     0.59470
H      4.20253     0.54436     1.25556
O      2.42151     1.10320     0.99136
H      1.89145     0.45386     1.50018
O     -0.33666    -1.28488    -0.45703
H      0.07117    -0.46611    -0.82366
O     -0.97299    -1.85792    -1.59055
H     -1.49513    -1.10122    -1.92348
O     -1.82839     0.58009    -2.41856
H     -0.91555     0.87840    -2.52228
O     -2.18532     1.34058    -1.25677
H     -2.70245     0.69797    -0.72835
O     -0.45729     1.99539     1.04067
H     -1.06158     2.07783     0.28665
O     -1.33495     1.51794     2.06150
H     -0.91895     0.67116     2.31190
O      0.92557     0.84765    -1.41066
H      1.36272     1.38598    -0.72219
O      2.02047     0.45410    -2.25033
H      2.16435    -0.47063    -1.97234
O      2.67001    -2.11558    -0.00384
H      3.06589    -1.22695     0.06313
O      2.25849    -2.14247    -1.37399
H      1.31030    -2.32421    -1.28370
O     -0.26662    -0.98138     2.18416
H     -0.48214    -1.16258     1.24400
O      1.16242    -0.92745     2.16766
H      1.40690    -1.68510     1.61081
O     -3.82864     1.23020     1.13229
H     -2.95141     1.31045     1.55847
O     -3.66642    -0.02298     0.46089
H     -4.58108    -0.29863     0.34251
