 40
-1516.6463006445176
O     -0.35343    -0.78816    -3.08605
H     -1.09999    -0.27591    -2.70612
O      0.66578    -0.70383    -2.09684
H      0.19291    -0.38751    -1.29430
O     -0.46326    -0.81009     2.97569
H     -0.81745    -1.52589     2.41236
O     -1.20464     0.29639     2.44552
H     -0.76622     1.06520     2.88188
O      1.55876     2.48760     0.16623
H      2.20753     2.24302    -0.52307
O      2.09601     1.86914     1.35032
H      2.05053     0.90291     1.14389
O      0.00117    -2.60503     0.33432
H     -0.23697    -3.08992    -0.47864
O     -1.25246    -2.42799     0.99083
H     -1.72056    -1.81565     0.39964
O     -0.32222     3.56532     3.04367
H     -0.14360     4.03496     3.86299
O      0.32708     2.32520     3.30622
H      1.03706     2.29701     2.61950
O     -0.96007     1.80468    -0.34867
H     -0.09800     2.22108    -0.12866
O     -0.57367     0.44867    -0.08897
H     -0.85264     0.38115     0.85930
O     -2.57392     0.25545    -1.92023
H     -2.30362     0.94937    -1.29853
O     -2.88197    -0.80784    -1.01321
H     -2.76823    -1.58849    -1.58551
O     -0.85162    -3.24707    -2.18698
H     -0.56792    -2.42176    -2.64140
O     -2.27058    -3.11205    -2.19449
H     -2.52133    -3.62199    -2.97120
O      1.87544    -0.72540     0.90213
H      1.25146    -1.44521     0.67649
O      2.13831    -0.97209     2.27547
H      1.25711    -0.80511     2.65534
O      1.95718     1.70658    -2.66091
H      1.62824     0.79602    -2.55979
O      3.13013     1.65549    -1.84982
H      3.77848     2.08359    -2.41519
