 36
-1364.9751321776841
O      2.12492     1.05636     0.30636
H      1.89680     1.12044     1.24837
O      2.64028     2.34758    -0.00736
H      2.19428     2.47029    -0.85826
O      1.02149     1.26203    -2.25050
H      0.79416     0.31891    -2.31286
O      0.59895     1.81339    -3.49467
H     -0.21164     2.27250    -3.22930
O     -0.08138     0.06187     3.34507
H     -0.52103     0.55256     2.62285
O      1.22637    -0.09036     2.79371
H      1.16956    -0.97926     2.39246
O     -1.08014    -0.63610    -2.02612
H     -1.71581     0.08776    -2.17483
O     -1.37944    -0.98992    -0.67122
H     -0.79837    -1.75593    -0.51540
O     -2.03205     2.65971    -2.07160
H     -1.58898     2.36883    -1.24486
O     -2.70476     1.47453    -2.48951
H     -3.60720     1.61830    -2.18664
O     -1.58897    -2.15732     3.00754
H     -0.99443    -1.42990     3.29731
O     -2.52312    -1.42711     2.20119
H     -3.24654    -1.27441     2.81810
O      1.77480    -1.41721    -1.78132
H      2.41749    -1.59859    -2.47381
O      2.59580    -1.40528    -0.61649
H      2.58078    -0.45440    -0.38666
O     -0.60850     1.90620     0.11840
H      0.09911     1.39054    -0.30677
O     -1.10388     0.97123     1.07547
H     -1.30291     0.16740     0.54000
O      1.18696    -2.44388     1.47245
H      1.74968    -2.24896     0.70051
O      0.05729    -3.03056     0.82413
H     -0.57038    -3.06956     1.56084
