 24
-909.9782292289409
O     -2.32063     0.15644     0.79499
H     -2.08197    -0.79606     0.71958
O     -2.33783     0.54755    -0.58002
H     -2.97263    -0.06310    -0.97169
O     -1.46814    -2.27039     0.17335
H     -0.56741    -2.36777     0.54739
O     -1.23686    -2.29255    -1.23995
H     -0.48369    -1.67375    -1.34328
O      2.62651     2.97725    -1.74928
H      2.56256     3.85545    -2.13465
O      1.33616     2.85007    -1.14892
H      0.96051     2.10397    -1.65439
O     -0.00496     0.62022    -1.87975
H     -0.83504     0.60702    -1.36538
O      0.72494    -0.45761    -1.28969
H      0.90120    -0.08596    -0.40386
O      0.96747    -2.14272     1.24253
H      1.75819    -2.68375     1.34367
O      0.65320    -1.76259     2.58338
H      0.78968    -0.80583     2.52550
O      0.90683     0.90364     0.93665
H      1.03040     1.80977     0.60706
O     -0.00420     1.06079     2.02271
H     -0.85434     0.83060     1.60531
