 36
-1364.9828059092652
O      2.32164     2.19251    -0.62266
H      3.22117     2.50258    -0.77883
O      1.94325     2.90960     0.55426
H      1.20300     3.43718     0.21902
O      0.79460    -0.39648     2.15582
H      1.15929    -0.62459     1.26554
O      0.34259     0.94304     1.93722
H      1.15996     1.41726     1.71303
O     -1.33618    -2.11684    -0.90932
H     -0.35848    -2.12948    -0.94525
O     -1.65937    -1.01528    -1.76013
H     -1.63343    -0.25803    -1.13781
O      0.76620     0.34060    -2.36002
H      0.07210    -0.22753    -2.73092
O      0.83982     1.44237    -3.25353
H      0.48984     2.14813    -2.69409
O      1.79016    -0.78926    -0.22676
H      1.56827    -0.22642    -1.00083
O      1.33474    -2.07114    -0.67007
H      1.47118    -2.61698     0.13327
O     -2.27002    -1.45548     1.46810
H     -1.95641    -1.83104     0.61505
O     -1.35343    -2.02877     2.39517
H     -0.63861    -1.36401     2.43404
O     -0.48423     3.78205    -1.85050
H     -1.31162     4.11432    -2.21190
O     -0.76449     3.68826    -0.45348
H     -1.08411     2.76633    -0.36184
O      1.28390    -3.42911     1.62930
H      1.70631    -4.18066     2.05690
O      0.03215    -3.98295     1.22312
H     -0.57535    -3.40550     1.73395
O     -2.61966     1.10301     0.68159
H     -2.64514     0.20139     1.05920
O     -1.38811     1.02333    -0.03146
H     -0.74179     0.90297     0.70785
