 36
-1364.980877526497
O      3.71452     2.18708    -0.14205
H      4.02433     3.09168    -0.05298
O      2.34809     2.35851     0.22766
H      2.20120     1.57131     0.79820
O      0.23523     2.57122    -2.15807
H     -0.35423     2.05536    -2.73141
O      1.42348     1.76985    -2.18742
H      1.88702     2.13212    -1.40167
O     -1.28088    -1.95529     3.30897
H     -1.50775    -1.91027     4.24214
O      0.14040    -1.83042     3.32309
H      0.24780    -0.91145     2.99743
O     -1.88920     0.83205    -2.63491
H     -2.08005     1.21235    -1.75634
O     -1.88997    -0.55721    -2.29297
H     -0.96642    -0.83041    -2.47443
O     -0.73055     2.16625     0.30164
H     -0.34791     2.45363    -0.55382
O     -2.01440     1.70043    -0.11385
H     -2.12313     0.90266     0.44336
O     -2.14686    -0.64781     1.13135
H     -1.85602    -1.14190     1.92619
O     -2.23551    -1.69694     0.16794
H     -2.23458    -1.20542    -0.67776
O      0.57741    -1.56359    -2.23298
H      0.48685    -2.36755    -1.69194
O      0.81840    -0.65643    -1.14987
H      1.06936     0.16272    -1.61404
O      0.34965     0.52445     2.12186
H     -0.03245     1.16424     1.47631
O      1.59467     0.16927     1.53028
H      1.34092    -0.55577     0.92151
O      1.04063    -2.62876     0.79676
H      0.71559    -2.87463     1.67506
O      0.04928    -3.14645    -0.09233
H     -0.75795    -2.65283     0.14373
