 40
-1516.6335908623632
O      1.60965     1.38472     0.49477
H      0.64773     1.58803     0.44356
O      1.86160     0.74716    -0.75693
H      1.90789    -0.19343    -0.47130
O     -1.41232    -2.98729     1.22692
H     -0.51894    -3.01587     0.84036
O     -1.10771    -2.67347     2.59289
H     -1.90171    -2.19149     2.84933
O     -0.90489     2.22248     0.54871
H     -1.49252     2.47713    -0.17813
O     -1.28964     3.10472     1.60734
H     -1.43821     2.45131     2.30371
O     -2.18529    -0.26831     3.71003
H     -1.59079    -0.44116     4.44503
O     -1.28430     0.38043     2.82345
H     -1.61577     0.09991     1.94052
O     -2.09761    -0.54362     0.43631
H     -2.07136    -1.51695     0.57350
O     -1.01321    -0.41609    -0.49030
H     -1.43264     0.02936    -1.24514
O      0.88083    -1.21254    -2.75258
H      0.85889    -0.32445    -3.15583
O      2.24468    -1.58614    -2.99979
H      2.50578    -1.87664    -2.11589
O     -2.17998     1.20690    -2.68426
H     -3.05875     1.43512    -3.00420
O     -1.74610     2.46825    -2.16822
H     -0.85424     2.51324    -2.55412
O      2.52683     0.01965     2.56301
H      2.27144     0.56760     1.79124
O      1.45666    -0.91554     2.61428
H      0.66380    -0.35537     2.68158
O      0.87869    -2.56783    -0.18742
H      0.45316    -1.99401    -0.84553
O      1.99474    -1.75359     0.19678
H      1.85288    -1.60334     1.16985
O      0.94135     2.20261    -2.75799
H      1.29655     1.67758    -2.00017
O      1.05372     1.26121    -3.82179
H      1.88735     1.50677    -4.23645
