 20
-758.3115986024208
O     -1.72154    -2.08149     1.27320
H     -1.17439    -2.26689     0.49354
O     -2.74006    -1.26915     0.69138
H     -3.52321    -1.81532     0.80819
O      2.61818     1.91897    -0.91477
H      3.25702     2.26159    -1.54611
O      1.80759     1.11171    -1.77202
H      1.90784     0.22526    -1.35697
O      0.35305    -0.16273     1.90337
H     -0.47302    -0.65483     2.01721
O     -0.09251     1.20042     1.90276
H     -0.19860     1.37910     0.95008
O      0.23835    -1.60762    -0.83058
H     -0.22621    -0.79038    -1.09405
O      1.46261    -1.08149    -0.30271
H      1.16145    -0.71334     0.55743
O     -0.61277     1.68346    -0.72059
H      0.23919     1.58384    -1.19292
O     -1.31268     0.52596    -1.19108
H     -1.86683     0.31953    -0.42476
