 40
-1516.6476923405087
O      3.04512     2.50323     0.63506
H      2.94748     1.53322     0.69345
O      2.00542     2.90274     1.52697
H      2.48619     3.41417     2.18422
O      2.39468    -1.05048    -0.27316
H      1.90098    -0.50963    -0.91673
O      2.53877    -0.14104     0.81191
H      1.73126    -0.30554     1.34803
O     -0.89062     3.14641    -0.24796
H     -1.36539     2.83887    -1.04799
O      0.44205     2.80051    -0.63444
H      0.97319     3.05176     0.15259
O     -1.81175     1.36395     1.53848
H     -1.43354     2.11420     1.03803
O     -1.87934     0.36945     0.51369
H     -1.07982    -0.16620     0.69172
O     -2.62525     0.76769    -1.99208
H     -2.35198     0.66110    -1.05456
O     -1.89907     1.92727    -2.39928
H     -1.11946     1.52468    -2.82853
O      0.33887     0.65796    -3.13252
H     -0.01712    -0.21726    -3.33605
O      0.80335     0.43772    -1.80329
H      0.68607     1.32867    -1.39286
O     -0.15007     0.27632     3.34989
H     -0.86423     0.75140     2.89440
O      0.31539    -0.48490     2.23691
H      0.23424    -1.39915     2.58393
O     -0.20573    -1.91650    -0.05802
H     -0.55598    -1.92599    -0.96441
O      0.68210    -3.03089    -0.07363
H      1.52922    -2.54512    -0.10038
O      0.82226    -3.96280     2.50532
H      0.62726    -3.66352     1.59907
O      0.20922    -2.92068     3.26957
H     -0.46149    -3.38717     3.77809
O     -1.74048    -1.27797    -3.44023
H     -2.23972    -0.58573    -2.95551
O     -1.45921    -2.18603    -2.38679
H     -2.01551    -2.94424    -2.58903
