 20
-758.3061170400834
O      1.31550    -2.72211    -0.35860
H      1.94345    -3.44508    -0.25543
O      0.38428    -2.98509     0.69981
H     -0.36838    -2.44927     0.37924
O      1.37772     0.40989    -0.95517
H      0.52353     0.86265    -0.89999
O      1.47000    -0.16416     0.36037
H      1.49878    -1.11602     0.14427
O      0.66821     1.81682     2.07991
H      1.10846     1.18863     1.48042
O      0.41632     2.88731     1.16375
H      0.65434     3.65381     1.69342
O     -1.46592    -1.32305    -0.32423
H     -1.33625    -0.38234    -0.09238
O     -1.26289    -1.28686    -1.74323
H     -0.37191    -1.65428    -1.81871
O     -1.37737     1.31253     0.05362
H     -0.86155     2.00359     0.52304
O     -1.63293     1.92846    -1.21399
H     -2.26155     1.30185    -1.58953
