 20
-758.3032291330923
O     -0.09915    -1.05313     0.81024
H      0.27646    -0.91558     1.70422
O     -1.45962    -0.64585     1.03730
H     -1.62789    -0.12633     0.23528
O      1.24170     2.22716    -0.24791
H      1.58289     2.42512    -1.12645
O      1.87485     0.97648     0.02937
H      1.15967     0.33673    -0.14030
O      2.11273     0.37878     2.94851
H      2.01746     0.67583     2.03258
O      0.87965    -0.30788     3.16080
H      0.37060     0.31447     3.69245
O     -1.65698    -1.71019    -2.14735
H     -2.00771    -2.40009    -2.72075
O     -0.39702    -2.28223    -1.76305
H     -0.46488    -2.19355    -0.80143
O     -0.67935     1.07707    -2.39000
H     -0.98331     0.16555    -2.50134
O     -1.31312     1.41205    -1.14137
H     -0.57879     1.84869    -0.68404
