 36
-1364.977423827283
O     -1.16850     1.24683     1.71936
H     -1.86242     0.88762     1.12906
O     -0.12076     1.40516     0.75617
H      0.42919     2.08291     1.17608
O     -1.23912    -1.42354     2.68228
H     -1.07389    -0.47758     2.81209
O      0.07312    -1.92229     2.42206
H     -0.06668    -2.47257     1.62409
O      1.73986    -0.15615    -1.42234
H      2.47656     0.36160    -1.04192
O      1.19338    -0.68260    -0.21399
H      0.69894     0.08676     0.14936
O     -1.66972    -0.09033    -3.57694
H     -1.52688     0.86667    -3.57240
O     -1.09065    -0.38410    -2.29786
H     -0.76198    -1.29270    -2.39610
O     -0.58526     2.48616    -3.23873
H     -0.01874     2.74409    -3.97317
O      0.37177     2.23138    -2.20897
H      0.33194     1.26065    -2.14290
O      2.33233     2.72693     0.10878
H      1.84734     2.62222    -0.72331
O      3.08275     1.51807     0.14927
H      2.82067     1.15244     1.00762
O     -2.66972    -1.50668     0.42552
H     -2.17159    -1.48049     1.26737
O     -2.52161    -0.16448    -0.04458
H     -2.05620    -0.27476    -0.89883
O      1.37332     0.80812     3.57421
H      2.02158     0.68883     4.27531
O      1.96353     0.04525     2.52112
H      1.36020    -0.72471     2.46663
O     -0.14824    -2.91484    -0.06411
H      0.36883    -2.11924    -0.30870
O     -1.08912    -2.99052    -1.13465
H     -1.87715    -2.63763    -0.68211
