 24
-909.9749171247798
O     -0.81400    -1.94581    -0.99433
H     -0.74066    -1.82119    -0.02802
O     -2.20766    -1.79053    -1.21800
H     -2.40199    -0.94860    -0.77612
O      2.30457    -1.33120     1.34639
H      1.57455    -1.65794     1.88785
O      1.59776    -0.48453     0.44730
H      1.80744     0.40894     0.77140
O      1.05702     0.48445    -1.96727
H      1.21517    -0.07032    -1.17926
O     -0.33013     0.30235    -2.24652
H     -0.48536    -0.65314    -2.05526
O     -1.90959     1.14465    -0.23711
H     -1.33872     1.01676    -1.02079
O     -0.94036     1.30463     0.80794
H     -0.46560     2.11815     0.55184
O     -0.98600    -1.25032     1.59649
H     -0.94861    -0.27128     1.53835
O     -0.49510    -1.49845     2.91073
H     -1.17490    -2.09178     3.23930
O      2.00275     2.37099     0.23437
H      2.78699     2.64617    -0.25137
O      0.94028     2.81053    -0.62016
H      0.92066     2.08359    -1.28155
