 28
-1061.6449832228611
O     -1.83757     1.02352    -0.41958
H     -1.56966     1.92525    -0.18405
O     -1.43168     0.98023    -1.79021
H     -1.79465     0.12087    -2.03655
O     -0.31688    -2.00128     1.56677
H      0.14561    -1.49760     2.26335
O     -1.54959    -1.26843     1.53700
H     -1.57555    -0.99223     0.60452
O      0.68072     0.16038     2.72677
H      1.26853     0.32644     1.96439
O     -0.44688     0.98300     2.39807
H      1.26084    -1.50048     0.41678
O     -0.31119     3.18594     0.50650
H     -0.11581     2.66173     1.29885
O      0.88777     2.99556    -0.23799
H      1.24285     3.89023    -0.29303
O     -1.04390    -3.22144    -1.17375
H     -1.04853    -3.29363    -0.21012
O     -1.19636    -1.80566    -1.32145
H     -0.35137    -1.55842    -1.75030
O      2.11191     0.18623     0.43895
H      1.83398     0.64059    -0.38334
O      2.09108    -1.18862     0.02563
H     -1.10884     0.29815     2.18822
O      1.06422    -0.83830    -2.40701
H      1.71526    -1.21003    -1.78554
O      1.19346     0.54658    -2.04630
H      0.26060     0.82884    -2.03287
