 20
-758.3021886869107
O      0.95061    -3.08951     0.28337
H      1.09657    -3.91131     0.75944
O     -0.47493    -3.03818     0.24822
H     -0.58660    -2.41206    -0.48436
O      1.76405     0.04171     0.41730
H      1.35532    -0.16700    -0.44360
O      0.85499    -0.60834     1.31637
H      0.94145    -1.53956     1.04536
O      0.89240     2.37274     1.38179
H      1.29076     1.54097     1.04848
O      0.32221     2.89272     0.17151
H      0.20304     3.82004     0.39738
O     -0.78317    -0.96204    -1.54064
H     -1.04394    -0.25724    -0.90463
O      0.53040    -0.53716    -1.91137
H      0.36637    -0.11332    -2.75906
O     -1.53120     0.98630     0.12752
H     -0.86029     1.70117     0.22880
O     -2.64687     1.69194    -0.41840
H     -3.26409     1.63595     0.31655
