 40
-1516.6432966832372
O      1.75606     2.85916    -0.06038
H      2.60644     2.48985    -0.38066
O      1.95825     2.85673     1.35421
H      1.10441     2.50613     1.67595
O      1.35680    -0.14076    -2.09566
H      0.78471     0.65210    -2.01377
O      2.26782     0.22457    -3.12353
H      3.08037     0.29000    -2.59925
O     -3.43335     0.34214     1.26676
H     -3.86429     0.91536     1.91015
O     -3.97762     0.77845     0.02349
H     -3.22008     1.25422    -0.35081
O      0.44437     0.46626     2.46108
H     -0.23672    -0.21736     2.65395
O     -0.32593     1.60262     2.07933
H     -0.67594     1.33660     1.20270
O     -1.09770     1.11100    -0.37693
H     -1.06610     0.18868    -0.73483
O     -0.28608     1.81260    -1.32010
H      0.39053     2.24316    -0.73483
O      4.13537     0.51919    -1.07534
H      3.53939     0.24045    -0.34278
O      4.10425     1.93298    -0.89741
H      4.94013     2.11864    -0.45633
O      1.60799    -1.26243     0.30818
H      1.54469    -0.99968    -0.63245
O      2.42353    -0.19313     0.80789
H      1.82953     0.20384     1.48216
O     -1.37531    -1.41807     2.40050
H     -2.12547    -1.07497     1.88808
O     -0.86736    -2.44643     1.55481
H     -0.03710    -2.05710     1.22680
O     -3.39475    -3.48121     0.75664
H     -2.48586    -3.50402     1.08422
O     -3.19243    -2.63900    -0.38229
H     -3.99636    -2.10757    -0.39975
O     -1.01429    -1.34861    -1.30183
H     -1.73166    -1.94416    -0.98857
O     -1.07540    -1.54452    -2.71979
H     -0.13066    -1.49382    -2.91190
