 20
-758.308822707296
O      1.10394    -2.59643     1.48526
H      1.58646    -3.34477     1.84747
O      0.88395    -3.04157     0.13552
H      0.17325    -2.42486    -0.12285
O      2.03120    -0.11135     0.98089
H      1.78280    -1.04600     1.13469
O      2.55009    -0.12659    -0.34533
H      1.74659    -0.24519    -0.87358
O      0.04360     1.58591     0.66039
H      0.82407     0.99778     0.80664
O     -0.98478     0.82138     1.31642
H     -1.76624     1.33066     1.06863
O     -0.89056    -1.09244    -0.53585
H     -0.93385    -0.44115     0.19554
O     -0.22149    -0.33551    -1.55627
H     -0.86328     0.36896    -1.72242
O     -2.74290     2.40345    -0.74847
H     -3.20392     3.12056    -1.19547
O     -1.57793     2.26045    -1.56322
H     -0.89120     2.43932    -0.90380
