 20
-758.3149543647502
O     -1.57721    -1.56351     0.78865
H     -1.86300    -0.97567     0.06617
O     -1.54254    -0.59597     1.85431
H     -0.59367    -0.64776     2.07352
O      1.52014     1.43397     0.23289
H      1.85682     1.16465    -0.63628
O      0.80335     2.63441    -0.08512
H     -0.11134     2.34939     0.08330
O      1.05675    -1.77753     0.50164
H      0.09826    -1.97040     0.47417
O      1.07106    -0.81206     1.56231
H      1.23814     0.01869     1.07264
O      0.46148    -0.45137    -2.33986
H      0.54774    -0.93285    -3.16790
O      1.78256    -0.54492    -1.80797
H      1.62382    -1.11808    -1.03257
O     -1.68369     1.55989     0.25896
H     -1.68798     0.98948     1.05130
O     -1.84103     0.55559    -0.75177
H     -0.97622     0.55993    -1.18935
