 36
-1364.9800131094623
O     -0.33151     3.61252     0.19283
H     -0.79268     4.37981    -0.16248
O      0.77687     3.45014    -0.68851
H      0.47679     2.70263    -1.24618
O     -0.78334     0.35786    -1.76922
H     -1.39761     0.80912    -1.14939
O      0.03747     1.40705    -2.28741
H      0.82671     0.90308    -2.56202
O      1.06837    -0.69477     2.42828
H      1.52011     0.01197     1.92054
O      0.12210    -1.11873     1.44974
H     -0.42581    -0.31142     1.32171
O      3.27933     0.69578    -1.62802
H      4.14352     0.31989    -1.82297
O      2.40296    -0.04205    -2.47898
H      2.17443    -0.79771    -1.88685
O     -3.25655    -0.83747     1.65125
H     -3.91071    -0.91338     2.35400
O     -3.81366    -1.64675     0.61490
H     -3.11022    -2.31373     0.53152
O     -1.13167     1.19174     1.01775
H     -0.72797     2.05312     0.78865
O     -2.32690     1.22084     0.23591
H     -2.81922     0.50068     0.68163
O      1.92364     1.06241     0.63748
H      2.44297     0.86901    -0.17394
O      2.62498     2.16799     1.20380
H      2.09194     2.88904     0.84310
O      1.54204    -1.72439    -0.65125
H      1.12122    -1.56313     0.23345
O      0.39348    -1.99871    -1.45733
H     -0.02615    -1.11521    -1.51709
O     -0.95192    -3.87283     1.21452
H     -0.74122    -3.09675     1.75197
O     -1.50515    -3.25908     0.04870
H     -0.71509    -3.03592    -0.48322
