 40
-1516.6435425728034
O      2.12349     1.37595    -0.14271
H      2.04042     0.60847    -0.76114
O      3.18087     2.14426    -0.69589
H      2.71779     2.59140    -1.41698
O      0.80365    -0.42236     1.79029
H      0.43826     0.34949     2.27543
O      2.19813    -0.41919     2.12296
H      2.52584     0.23119     1.48675
O     -1.49430     0.05064    -0.49044
H     -0.75303    -0.39419    -0.95920
O     -2.58201    -0.12447    -1.39069
H     -2.75975    -1.06616    -1.22438
O     -2.29443    -0.84045     2.32555
H     -2.28504    -0.40533     1.45656
O     -1.74832    -2.11715     2.02813
H     -0.78393    -1.96406     1.98923
O     -0.67744     1.43723     3.07697
H     -1.29461     0.73752     3.33325
O     -1.53434     2.20166     2.21885
H     -0.89264     2.65294     1.63512
O     -0.80694     2.59707    -0.83462
H     -1.17931     1.73787    -0.52448
O      0.06881     2.99757     0.22738
H      0.83815     2.39329     0.11775
O      0.44936     1.82519    -3.04046
H     -0.00611     2.22468    -2.25807
O      1.50869     2.73889    -3.28052
H      1.16882     3.24164    -4.02537
O     -1.30232    -3.31402    -0.94499
H     -1.64858    -4.18092    -1.18259
O     -2.47034    -2.67434    -0.44391
H     -2.24947    -2.57707     0.51157
O      0.65580    -3.11742     0.86373
H      0.10009    -3.16282     0.06994
O      1.85792    -2.52930     0.37542
H      2.14033    -2.03855     1.16221
O      1.76971    -0.77132    -1.65560
H      1.75682    -1.53459    -1.03770
O      0.44255    -0.77059    -2.18201
H      0.46271     0.03850    -2.73106
