 32
-1213.3119935798982
O      2.20759    -0.88087     1.06788
H      2.19971    -0.92393     0.08642
O      2.13666     0.51756     1.34569
H      1.27546     0.59779     1.80921
O      0.20705    -2.53546     1.67187
H      0.94520    -1.89255     1.60796
O     -0.93497    -1.69304     1.60335
H     -0.97024    -1.42178     0.67005
O      1.80506     1.80240    -0.94915
H      2.12775     1.45765    -0.08872
O      0.47959     2.21282    -0.59593
H     -0.01562     1.36412    -0.62047
O     -2.77986     3.12189    -0.19609
H     -3.23078     3.79201    -0.72138
O     -1.76467     3.87025     0.46209
H     -0.97323     3.56454    -0.00994
O     -0.97663    -0.01034    -0.88332
H     -0.54232    -0.29638    -1.70430
O     -2.28348     0.36153    -1.30231
H     -2.36559     1.20830    -0.84155
O      1.94016    -1.39118    -1.54248
H      1.29670    -2.12123    -1.63248
O      1.37319    -0.40820    -2.41885
H      1.66469     0.42155    -1.98657
O     -0.18577    -2.98264    -1.51107
H     -0.65814    -3.56853    -2.11083
O      0.48447    -3.90815    -0.65156
H      0.27886    -3.50705     0.21580
O     -1.30564     1.31614     1.74397
H     -1.19484     2.25580     1.93842
O     -0.26987     0.70598     2.52716
H     -0.59187    -0.21762     2.51521
