 20
-758.3045021288442
O     -0.20668    -1.99111     1.03364
H      0.11203    -2.87292     1.24772
O     -1.57819    -2.25602     0.69532
H     -1.97065    -1.38611     0.90969
O     -0.10520    -0.50417    -1.16789
H     -0.09625    -1.18049    -0.45690
O      1.03836    -0.85770    -1.95392
H      1.75306    -0.43643    -1.44666
O      0.49213     1.86102    -0.14829
H      0.14145     1.04412    -0.56424
O     -0.51067     2.16938     0.82544
H     -0.94968     2.92102     0.41681
O      2.85355     0.41882     0.77558
H      2.25969     1.18336     0.78551
O      3.11112     0.35063    -0.63023
H      4.04054     0.10636    -0.64776
O     -2.78389     0.59998    -0.45836
H     -2.08797     0.13403    -0.94529
O     -2.41453     0.29381     0.88820
H     -1.69753     0.93839     1.03435
