 32
-1213.3136130113012
O      3.17005     1.01774     0.27029
H      3.53352     1.08785    -0.62425
O      2.20328     2.08463     0.22021
H      1.45413     1.66165     0.68748
O     -0.41739    -2.60846     0.08039
H      0.43824    -2.24566     0.38369
O     -0.35383    -2.29953    -1.31296
H     -0.72905    -1.39463    -1.35564
O     -0.95148     0.28130    -1.44105
H     -0.16702     0.68287    -1.86666
O     -2.03005     0.96955    -2.06690
H     -2.55966     1.14416    -1.27477
O      0.11882     0.80356     1.19055
H     -0.61379     0.93163     0.55524
O     -0.50428     1.12169     2.44062
H     -0.72580     0.21756     2.71874
O      1.35287     1.41108    -2.35770
H      1.53122     2.08615    -1.68430
O      2.64502     0.79929    -2.45781
H      2.45073    -0.12214    -2.20339
O      1.91990    -1.39470     0.04244
H      2.32737    -0.51567     0.19074
O      2.21224    -1.62878    -1.34637
H      1.35482    -2.02111    -1.60794
O     -2.27122    -1.60317     1.68979
H     -1.74411    -2.09537     1.02432
O     -1.27989    -1.47348     2.71451
H     -1.68425    -1.97238     3.42822
O     -3.04153     1.72771     1.65154
H     -2.17449     1.75647     2.08862
O     -2.74098     0.83113     0.58632
H     -2.79402    -0.04073     1.01201
