 36
-1364.9688371695913
O      1.49691     1.82987     1.01555
H      1.41181     1.65736     0.05128
O      1.72958     0.51042     1.51495
H      0.87747     0.26326     1.93810
O      0.05759    -1.79098    -1.40917
H      0.94109    -1.59274    -1.02476
O     -0.79227    -1.81942    -0.27051
H     -1.04705    -0.89008    -0.14382
O     -1.80759     0.02779     2.15840
H     -1.92188     0.84169     2.66410
O     -0.52260    -0.37008     2.64681
H     -0.60683    -1.33415     2.68655
O      2.47473    -1.09206    -0.45478
H      2.34019    -0.55060     0.36040
O      3.34900    -2.12535    -0.02057
H      4.16068    -1.89154    -0.47910
O     -0.98075     2.86366     1.40019
H     -0.05598     2.53731     1.41597
O     -1.33612     2.77941     2.78311
H     -1.72957     3.64704     2.91661
O     -1.83424     1.01787    -0.59715
H     -2.02280     1.78139    -0.02561
O     -2.85585     1.06506    -1.59322
H     -2.34514     0.77573    -2.36633
O      0.61217     2.00013    -2.51108
H      0.61115     1.34273    -3.21905
O      0.64978     1.12760    -1.37960
H     -0.30115     1.11519    -1.12642
O     -0.26492    -0.45872    -3.72783
H     -0.22312    -0.96590    -2.88907
O     -1.62837    -0.06679    -3.78373
H     -2.04289    -0.78138    -4.27719
O      1.38843    -2.45438     2.16462
H      2.06668    -2.94769     1.68513
O      0.18845    -3.15624     1.83260
H     -0.08816    -2.72103     1.00200
