 32
-1213.3117393114915
O      2.66080    -0.04287     2.27164
H      2.81235     0.05229     1.32148
O      1.70614    -1.09693     2.32650
H      0.89213    -0.60405     2.55988
O      0.32500    -2.93710     0.92602
H      1.04187    -2.54855     1.46502
O     -0.72597    -2.93450     1.88270
H     -0.98005    -3.86124     1.90484
O      0.97354     1.94019    -3.31838
H      0.78430     2.67064    -3.91403
O     -0.31766     1.42684    -3.03297
H     -0.54595     1.87251    -2.18254
O     -1.11649     2.27200    -0.64993
H     -1.78799     1.57515    -0.46761
O     -0.20581     2.08018     0.43353
H      0.66618     2.01431    -0.01790
O      2.10242     1.83578    -0.90011
H      1.90522     1.88291    -1.85444
O      2.60776     0.50552    -0.76974
H      1.78249    -0.01730    -0.77307
O     -2.73294     0.21360    -0.17919
H     -2.53257    -0.03292     0.74698
O     -2.70707    -1.07037    -0.80815
H     -1.87583    -1.05237    -1.31011
O      0.30906    -0.83639    -0.76757
H      0.15737    -1.65336    -0.25052
O     -0.27783    -1.14643    -2.03002
H     -0.21135    -0.27676    -2.46231
O     -1.74654    -0.44610     2.19869
H     -1.41154    -1.35904     2.17586
O     -0.54511     0.28945     2.41530
H     -0.52613     0.94134     1.68122
