 16
-606.6393771578945
O     -2.09487     0.22513     0.69611
H     -2.73566     0.17901     1.41193
O     -0.86885     0.04164     1.40771
H     -0.33547     0.76081     1.01822
O      0.91529     1.65384     0.18602
H      1.46405     0.91888    -0.14876
O      1.73301     2.21464     1.21530
H      1.94825     3.06851     0.83009
O      1.51666    -0.92620    -0.68917
H      0.62921    -1.20377    -0.98896
O      1.62750    -1.58169     0.57984
H      0.85091    -1.23991     1.04611
O     -1.08151    -1.48622    -1.11049
H     -1.56509    -0.87647    -0.52403
O     -1.02121    -0.72026    -2.31389
H     -0.92151    -1.42492    -2.95804
