 24
-909.9706415274712
O     -2.33626    -0.54367     1.03785
H     -2.52406     0.04837     0.29501
O     -0.90392    -0.46423     0.98215
H     -0.60426    -1.13470     1.62367
O      0.29391    -1.32196    -1.48632
H     -0.43808    -0.69442    -1.68693
O      0.49681    -1.94737    -2.74711
H      0.17516    -2.83120    -2.55234
O      2.05422    -0.15758     0.15154
H      1.46564    -0.66223    -0.44980
O      2.19580     1.05849    -0.58160
H      3.07730     1.32635    -0.31188
O     -1.51193     0.49314    -2.18809
H     -1.50366     1.10870    -2.92835
O     -2.20842     1.20342    -1.16672
H     -1.48471     1.76812    -0.79505
O      1.32634    -0.82889     2.69922
H      1.67345    -0.60041     1.82152
O      0.67560    -2.06290     2.39378
H      0.66932    -2.49313     3.25297
O     -0.11074     2.42939    -0.18961
H      0.75237     1.99472    -0.31077
O     -0.40364     2.13990     1.18086
H     -0.53957     1.16794     1.16267
