 36
-1364.973107879243
O      0.95258     2.63246    -0.26484
H      0.06139     2.77092     0.11041
O      1.47663     1.61346     0.59155
H      2.19682     1.23829     0.04380
O     -2.64643    -2.87593     1.38712
H     -1.85238    -3.35292     1.65941
O     -2.17980    -2.27010     0.18579
H     -2.41402    -1.33916     0.31662
O     -2.37725     2.23365     1.36863
H     -1.81032     1.47595     1.63634
O     -1.37456     3.17980     0.99653
H     -1.41055     3.81779     1.71539
O      0.36235     1.91332    -3.50685
H     -0.29386     1.56336    -2.88106
O      1.55527     1.84018    -2.73065
H      1.29655     2.31177    -1.91338
O     -1.03722     0.80981    -1.50739
H     -0.57660    -0.05403    -1.43645
O     -2.33393     0.47739    -1.01063
H     -2.51434     1.26482    -0.47960
O      2.80488    -0.32114    -1.89090
H      2.23501     0.34715    -2.34353
O      3.42949     0.50050    -0.90052
H      4.16424     0.89549    -1.38029
O     -0.29968    -0.12303     2.88008
H     -0.14353    -1.06685     2.72004
O     -0.63907     0.27490     1.55057
H      0.20849     0.63985     1.20027
O      1.17809    -1.96280    -0.42844
H      1.87848    -1.56380    -0.97841
O      0.01974    -1.62683    -1.19718
H     -0.70197    -2.06647    -0.69860
O      0.57760    -2.59899     2.11293
H      0.84452    -2.43520     1.18704
O      0.09265    -3.93366     2.01301
H      0.36629    -4.28301     2.86535
