 32
-1213.3148215120316
O     -0.12965    -0.28549     1.27523
H     -0.21173     0.19450     0.42650
O      0.15404     0.76472     2.19222
H      1.11330     0.88920     2.02647
O      2.70097    -1.52748    -0.09044
H      1.94735    -2.14539    -0.04811
O      2.49701    -0.89332    -1.36260
H      2.79418     0.01038    -1.13390
O     -2.87326    -0.69600     0.16716
H     -2.99294    -0.07214     0.89650
O     -2.72254     0.24006    -0.91758
H     -2.67729    -0.35122    -1.67969
O      0.32064     2.15043    -0.24496
H     -0.48451     2.54335     0.15709
O     -0.04401     2.14346    -1.63314
H     -0.26013     1.19667    -1.73977
O      2.83428     1.31656     0.06356
H      1.96490     1.75193    -0.01930
O      2.70539     0.68542     1.34970
H      2.79667    -0.24449     1.06625
O     -0.14887    -0.49700    -1.58167
H      0.79239    -0.77265    -1.64574
O     -0.88427    -1.52201    -2.22500
H     -1.02860    -2.12398    -1.48150
O      0.75031    -3.31185     0.21256
H      0.73747    -4.02666     0.85674
O     -0.56067    -2.77892     0.31426
H     -0.41186    -1.93197     0.78143
O     -2.34140     1.66819     1.70955
H     -1.42766     1.43801     1.96465
O     -2.13801     2.62360     0.65789
H     -2.59593     2.18404    -0.07349
