 24
-909.9757216772045
O      1.11881    -0.03260     3.09656
H      1.85736     0.08917     3.70227
O      1.67995    -0.86772     2.08071
H      1.89622    -0.20886     1.38736
O      0.21690    -2.03841    -1.27591
H      0.78362    -1.27885    -1.02858
O     -0.45222    -1.50106    -2.41361
H      0.00060    -1.92909    -3.14823
O      1.55048     0.29121    -0.99872
H      1.02485     0.88152    -1.58087
O      1.71714     1.09815     0.17110
H      0.79280     1.40062     0.32529
O     -0.24907     1.82175    -2.20789
H     -0.64211     2.21174    -1.41424
O     -1.33760     1.02121    -2.67365
H     -0.98687     0.12652    -2.53601
O     -1.60911    -1.10725     0.61646
H     -1.54076    -1.67555    -0.16873
O     -1.15453    -1.96638     1.66698
H     -0.19664    -1.82371     1.65487
O     -0.87132     1.44034     0.45152
H     -1.22235     0.51818     0.44319
O     -0.96211     1.79913     1.82090
H     -0.47820     1.07233     2.24576
