 40
-1516.6423036069032
O      1.13677     2.74537     0.66993
H      0.35133     2.90941     1.22651
O      1.73242     1.67148     1.38957
H      2.62863     1.99194     1.52221
O     -2.32481     1.91399    -0.64378
H     -2.28156     2.37137     0.20918
O     -1.05796     1.26988    -0.62661
H     -1.18919     0.54598     0.03779
O     -0.96063     2.88231     2.39952
H     -1.14319     1.92940     2.58288
O     -2.14817     3.29354     1.73582
H     -2.60131     3.79613     2.41659
O      2.30059    -0.80535     3.28072
H      2.30685    -1.63849     3.75722
O      1.13499    -0.98028     2.48899
H      1.51201    -1.01265     1.57558
O     -1.72747    -0.26156     1.43677
H     -1.52455    -1.22848     1.46602
O     -1.21482     0.22789     2.68312
H     -0.30957    -0.15233     2.67341
O     -0.82575    -2.71500     0.98798
H     -0.02683    -2.56083     0.44355
O     -1.69224    -3.36349     0.05802
H     -1.77783    -2.68398    -0.63118
O      1.82181     1.18920    -1.38663
H      1.53299     1.90575    -0.78464
O      0.82056     1.21879    -2.41294
H     -0.00128     1.26188    -1.87028
O     -1.63698    -1.57973    -2.07470
H     -0.82629    -1.83160    -2.54269
O     -1.98836    -0.39458    -2.80610
H     -2.16716     0.22319    -2.08674
O      1.99884    -1.09595     0.00041
H      1.95642    -0.27637    -0.54225
O      1.11465    -1.97540    -0.70839
H      1.55791    -2.05147    -1.57658
O      2.19484    -1.73031    -3.16563
H      2.39219    -2.30483    -3.90895
O      0.90412    -1.25486    -3.52117
H      0.95522    -0.31914    -3.23149
