 20
-758.3019775621822
O      2.11028    -1.85278     1.18379
H      2.90454    -2.39642     1.22393
O      2.22822    -1.28598    -0.12752
H      2.24760    -0.34004     0.09529
O     -0.55103    -0.69423     1.12371
H     -1.45114    -0.34680     1.01253
O     -0.76467    -2.03125     1.60924
H      0.15178    -2.33061     1.55164
O      0.42906     2.20157     0.21611
H      0.46390     1.82728    -0.67685
O      1.38823     1.38687     0.89922
H      0.81062     0.80333     1.41492
O      0.53050     0.26819    -2.13199
H      1.11461    -0.31384    -2.63182
O     -0.59655    -0.57581    -1.87259
H     -0.43604    -0.83625    -0.94959
O     -2.32379     1.24008     0.23349
H     -1.63155     1.89356     0.41730
O     -2.59822     1.51479    -1.14605
H     -2.16665     0.76246    -1.57535
