 40
-1516.6406056789951
O      2.43024    -0.52678    -2.86833
H      2.40762    -0.18355    -1.94719
O      1.89498     0.60222    -3.55392
H      2.52740     0.70410    -4.26878
O     -0.33296    -2.50600     0.79948
H     -0.20266    -2.63974    -0.16512
O     -0.54056    -1.09376     0.77845
H      0.37294    -0.76433     0.62907
O      1.47770     1.27964     2.69797
H      0.96688     1.92676     2.17806
O      0.44329     0.46806     3.26263
H      0.88223    -0.40885     3.26558
O     -0.84579     0.46927    -3.76824
H      0.11830     0.47484    -3.67111
O     -1.21187     0.07035    -2.44672
H     -2.03281     0.56657    -2.28362
O     -1.89915     1.44691     2.45921
H     -1.16281     0.97939     2.90391
O     -2.53934     0.40207     1.72777
H     -1.79946    -0.17211     1.41989
O     -0.16739     1.92206    -0.18229
H     -1.08843     2.05297    -0.48196
O     -0.09720     2.77502     0.96860
H     -0.91557     2.51388     1.43773
O     -3.42288     1.31504    -1.36110
H     -4.14110     1.87905    -1.65777
O     -2.88621     2.08590    -0.29142
H     -3.00895     1.47817     0.47452
O     -0.01744    -2.21980    -1.80241
H     -0.49036    -1.39417    -2.04012
O      0.60239    -2.56134    -3.04260
H      1.36400    -1.96225    -3.00669
O      0.94505    -2.95521     3.26499
H      0.56246    -2.92652     2.37314
O      1.79680    -1.81081     3.19775
H      2.66169    -2.16527     3.42670
O      2.18371     0.66479    -0.51152
H      1.33082     1.14464    -0.49966
O      2.00524    -0.28336     0.54213
H      2.17819     0.26417     1.33099
