 20
-758.3136092301223
O     -1.02618    -1.54917     0.00710
H     -1.35314    -0.64718    -0.18534
O     -0.19520    -1.30723     1.14880
H      0.69198    -1.31363     0.74627
O      2.52525     0.52100     0.40614
H      3.43832     0.38924     0.67577
O      2.15634    -0.78462    -0.02587
H      1.84018    -0.60987    -0.94171
O     -2.67909     1.26452     0.03711
H     -2.34085     1.31130     0.94452
O     -1.48232     0.99104    -0.69151
H     -0.80594     1.49193    -0.17969
O      0.48462    -1.78343    -2.24467
H     -0.05281    -1.91962    -1.44143
O      0.71805    -0.37484    -2.17933
H     -0.17240     0.00865    -2.14569
O     -0.51903     1.21502     2.01040
H     -0.43429     0.27425     1.75498
O      0.28223     1.87862     1.03362
H      1.10521     1.35889     1.00086
