 28
-1061.6391707698265
O     -2.70499    -0.93059     0.69765
H     -2.18333    -1.43089     1.35244
O     -2.86757    -1.84853    -0.37064
H     -1.95115    -2.03568    -0.61727
O      2.62126     0.73214    -0.95360
H      1.84399     0.70736    -1.54593
O      2.21348    -0.13132     0.11202
H      2.00542    -0.96116    -0.36448
O     -1.03865    -1.86758     2.57172
H     -1.07358    -1.68845     3.51641
O      0.22175    -1.31948     2.19330
H      0.44442    -2.44308     0.50098
O      1.42589     2.70087     0.43778
H      2.12540     2.14955     0.02560
O      1.15467     3.66672    -0.57710
H      1.38138     4.47314    -0.10947
O      0.40271     0.92962    -2.44999
H     -0.00382     1.78880    -2.62031
O     -0.63315     0.19321    -1.78690
H     -0.55590     0.47588    -0.84446
O      1.07561    -2.13098    -1.25110
H      0.54302    -1.51887    -1.77879
O      0.09349    -2.67999    -0.37172
H     -0.03986    -0.47907     1.76332
O     -1.74668     1.52037     0.71384
H     -2.30193     0.72244     0.60436
O     -0.48429     0.87341     0.81531
H      0.14921     1.62372     0.79201
