 20
-758.3128367965857
O     -1.28899    -2.62148     0.50569
H     -1.25912    -3.04468     1.36822
O     -0.18247    -3.21893    -0.17575
H      0.48521    -2.50489    -0.08290
O      1.42030    -0.55645    -1.15402
H      0.46083    -0.50676    -1.33742
O      1.42571    -1.11216     0.15789
H      1.18236    -0.35391     0.72111
O     -0.03461     2.51629    -0.96046
H      0.09264     2.60790    -0.00357
O      1.29191     2.45549    -1.47623
H      1.47578     1.50409    -1.46282
O     -0.44534     1.47877     1.68925
H     -0.91913     0.85670     1.09558
O      0.74940     0.74403     1.93712
H      0.68433     0.56247     2.87885
O     -1.66485    -0.08173    -0.06694
H     -1.50333    -1.04858     0.02813
O     -1.16627     0.16365    -1.38370
H     -0.89650     1.10267    -1.30170
