 28
-1061.642182779204
O      0.93494     0.70606    -0.72850
H      0.49465     1.06896     0.07372
O      1.01830     1.85415    -1.57618
H      0.07082     1.96434    -1.78924
O     -1.34146    -1.22508     0.24824
H     -1.34831    -1.04205    -0.70887
O     -0.33387    -2.21056     0.40063
H      0.45666    -1.67388     0.57564
O     -0.51097    -0.26851     3.39876
H     -1.29441    -0.13900     3.94654
O     -0.30443    -1.67733     3.45403
H      2.70479     0.22937     0.28950
O     -1.75124     1.23145     1.15706
H     -1.70091     0.28235     0.93460
O     -0.37128     1.48842     1.44878
H     -0.22380     0.88642     2.20531
O     -1.66352     1.71191    -1.78256
H     -1.86464     1.73232    -0.83496
O     -1.83468     0.31986    -2.08055
H     -1.14629     0.19772    -2.76920
O      1.90645    -0.64449     1.72521
H      2.29847    -0.58577     2.60517
O      3.03489    -0.48564     0.85009
H     -0.59460    -1.94762     2.57010
O      0.84050    -1.18146    -3.09476
H      0.98324    -0.71004    -2.25642
O      0.07478    -0.23304    -3.83699
H      0.73960     0.33626    -4.24122
