 36
-1364.9726757809735
O      1.37195    -1.85792     2.74683
H      1.75990    -1.33240     3.45499
O      2.42420    -1.93524     1.77987
H      2.40572    -1.02566     1.41201
O      1.08648    -3.64868    -0.31165
H      1.64704    -3.30463     0.39635
O      0.28147    -2.49735    -0.55718
H     -0.62159    -2.80149    -0.36227
O      0.44189     0.34520    -1.30564
H      1.13820     0.97123    -1.58735
O      0.28386    -0.54584    -2.40951
H      0.39531    -1.38554    -1.92591
O     -2.38537     0.68160    -1.04095
H     -3.01528     0.25983    -0.43214
O     -2.39308    -0.24850    -2.13723
H     -1.44813    -0.25517    -2.37714
O     -2.60005    -2.40663    -0.56819
H     -2.64211    -1.86987    -1.37569
O     -3.22301    -1.48356     0.34327
H     -2.51660    -1.40798     1.01109
O     -0.78391     2.83353    -0.70735
H     -1.41701     2.09136    -0.82335
O     -1.13468     3.34744     0.56882
H     -0.49970     2.89344     1.13751
O      1.83870     3.27265    -0.76129
H      0.85721     3.19178    -0.79059
O      2.20104     2.28638    -1.72637
H      2.50325     2.81792    -2.46843
O     -1.05962    -1.03724     1.86211
H     -0.17375    -1.41431     2.04966
O     -0.74198     0.26464     1.37190
H     -0.78264     0.11676     0.40945
O      2.20140     1.87105     1.77401
H      2.43262     2.35584     0.96944
O      1.87126     0.60854     1.20923
H      0.89341     0.56560     1.33109
