 32
-1213.306605985521
O     -0.03059     1.81228     2.83493
H      0.87143     1.90913     2.46633
O      0.08512     0.54248     3.48812
H     -0.30848    -0.05070     2.82937
O     -1.08875    -2.62660    -2.85905
H     -1.46672    -3.04942    -3.63566
O     -0.80335    -1.33003    -3.37703
H     -1.26150    -0.75607    -2.72595
O     -1.69311     0.36649    -1.50584
H     -0.87015     0.69201    -1.10606
O     -2.26750    -0.38974    -0.43329
H     -2.36639     0.28355     0.27363
O     -0.25653    -2.15449     0.09621
H     -1.14069    -1.83504    -0.14872
O      0.01547    -1.30876     1.21728
H      0.94732    -1.07495     1.08661
O      0.74977     1.88425    -0.99089
H      0.87149     2.34864    -1.82418
O      2.06008     1.40092    -0.73538
H      2.00807     0.47366    -1.07121
O      1.88329    -1.06549    -2.99744
H      0.93990    -1.10527    -3.24017
O      1.82406    -1.12398    -1.56980
H      1.16614    -1.81191    -1.38512
O      2.46808    -0.01777     2.14092
H      1.97438    -0.05914     2.97011
O      2.43598     1.40226     1.93642
H      2.41287     1.44406     0.96283
O     -2.29019     1.58260     1.36965
H     -1.52418     1.79694     1.94611
O     -3.11200     0.82419     2.25724
H     -3.96531     1.22375     2.07235
