 24
-909.9753757560437
O     -1.82756    -0.54148     1.23561
H     -0.92377    -0.78553     1.48064
O     -1.61383     0.61520     0.42025
H     -1.97766     0.33897    -0.43761
O      0.30560     0.60175    -2.51597
H      0.86226     0.11339    -1.86481
O      0.09860     1.87675    -1.91511
H      0.47531     1.76589    -1.03127
O      1.49494    -0.72001    -0.57469
H      1.67828    -0.46996     0.34557
O      0.77782    -1.94684    -0.38251
H     -0.03803    -1.79527    -0.89046
O     -1.50381    -1.86209    -1.85765
H     -1.74679    -2.39818    -2.61990
O     -2.06800    -0.59094    -2.18028
H     -1.26503    -0.11337    -2.48727
O      1.93697    -0.80419     2.08175
H      2.16632    -1.72968     2.20101
O      0.73022    -0.71210     2.84482
H      0.65463     0.25057     2.91387
O      1.09945     2.15584     0.95645
H      1.16372     3.11503     0.97960
O      0.11963     1.91947     1.96550
H     -0.61595     1.55940     1.42411
