 36
-1364.9739219129874
O      0.76648     0.89661    -1.65022
H      1.46892     0.68157    -1.01263
O      0.87276     2.33216    -1.67351
H      0.10306     2.58282    -1.14501
O      0.54189    -2.10205    -1.42426
H      0.49715    -1.17181    -1.71599
O      1.82637    -2.19054    -0.80147
H      1.63241    -1.88915     0.10971
O     -1.58742     2.20867     0.46617
H     -2.30726     2.17726     1.13201
O     -0.42660     2.05214     1.28703
H     -0.46297     1.09838     1.49485
O      2.98005    -0.05156    -3.18230
H      2.27696     0.61048    -3.15842
O      3.30183    -0.14812    -1.79299
H      2.96332    -1.03433    -1.56272
O     -3.51906     1.62943     2.20580
H     -3.59657     1.83487     3.14169
O     -3.01192     0.29072     2.26235
H     -3.21221    -0.00605     1.34799
O     -1.98716    -0.15353    -0.85453
H     -1.86386     0.73273    -0.45887
O     -3.18415    -0.61553    -0.21639
H     -2.98157    -1.56527    -0.16219
O      2.27540     1.42956     0.76926
H      1.58195     2.10571     0.84452
O      3.39116     2.13463     0.24222
H      3.49786     1.67161    -0.60243
O     -0.93253    -2.84652     0.63126
H     -0.47722    -2.75339    -0.23503
O     -2.26846    -3.10449     0.21428
H     -2.50455    -3.83673     0.78888
O      1.24501    -0.92277     1.48078
H      1.64772    -0.04652     1.31813
O     -0.10668    -0.56005     1.78378
H     -0.57158    -1.34942     1.44297
