 40
-1516.6404573220711
O     -0.19930     1.80317     1.79078
H      0.72279     2.07060     1.65576
O     -0.07464     0.38008     1.65311
H     -0.84726     0.21201     1.08215
O      2.23043    -0.95188    -0.02040
H      2.52715    -1.71362     0.52327
O      1.08346    -1.49330    -0.66401
H      0.67901    -0.69726    -1.06883
O     -0.02665     0.74879    -1.64978
H      0.31145     1.66855    -1.51955
O     -1.35013     0.97358    -2.15247
H     -1.58038     0.09332    -2.48913
O     -2.22812    -0.25722     0.27118
H     -2.87197     0.46631     0.19280
O     -2.98470    -1.44546     0.03435
H     -2.32221    -2.08275     0.36749
O     -2.08442     3.07577    -0.68185
H     -1.94182     2.28336    -1.23451
O     -2.48814     2.49697     0.55520
H     -1.62941     2.39713     1.00727
O      0.38976     4.05232    -0.27140
H     -0.54608     3.83707    -0.46310
O      1.04063     3.15693    -1.18314
H      1.89270     3.02935    -0.73251
O      2.57830     1.42031     1.16577
H      2.45973     0.57552     0.68311
O      3.20465     2.23454     0.17385
H      3.92556     2.62271     0.67776
O     -0.74067    -2.65807     0.77050
H     -0.09352    -2.39511     0.08446
O     -0.03244    -2.31045     1.95540
H      0.06945    -1.33762     1.89203
O      2.10725    -3.87962     1.58094
H      1.29112    -3.37258     1.77423
O      3.06790    -2.81701     1.69090
H      3.89143    -3.31116     1.73716
O     -2.34381    -1.69462    -2.61400
H     -2.79676    -1.64829    -1.75141
O     -1.22777    -2.51092    -2.26371
H     -1.41073    -3.33262    -2.72686
