 16
-606.6372899814011
O     -2.39896    -0.44598     1.12140
H     -2.44194    -1.40457     1.18791
O     -1.58461    -0.11707     2.25449
H     -0.85526     0.35202     1.81946
O      1.62645     0.85388     1.42192
H      1.97939     0.82780     0.51940
O      0.36675     1.48882     1.17943
H      0.46520     2.32284     1.65323
O      1.75347     0.61877    -1.52025
H      0.78041     0.63203    -1.49995
O      2.00273    -0.77560    -1.73700
H      2.17495    -0.79424    -2.68414
O     -1.02136    -0.07958    -1.18149
H     -1.56579    -0.08423    -0.37034
O     -0.87406    -1.49120    -1.42354
H      0.08762    -1.57247    -1.35093
