 20
-758.2976151997764
O     -1.24733    -0.43780     2.27105
H     -1.77451    -0.36502     3.07344
O     -1.72800    -1.65007     1.68836
H     -2.07518    -1.29866     0.85416
O      1.14873     1.68779     0.06513
H      1.39238     1.39316     0.95890
O      0.71944     0.43921    -0.48762
H      1.16921     0.42140    -1.35179
O      1.44437    -0.38233     2.68440
H      0.51726    -0.40983     2.39888
O      1.64184     1.04026     2.69587
H      2.52834     1.09425     3.06344
O      0.56770    -1.08383    -2.89359
H     -0.33427    -0.81169    -2.66240
O      1.15795     0.19625    -3.14044
H      1.89840    -0.04658    -3.70375
O     -1.94425    -0.27825    -2.03227
H     -2.27320     0.52738    -2.44457
O     -1.89745     0.11067    -0.65736
H     -0.93400     0.27679    -0.52835
