 16
-606.6336129934402
O      0.75071    -0.27221     0.75371
H      1.36051    -0.03429     1.47035
O     -0.20234     0.80132     0.86885
H      0.00760     1.31136     0.07170
O      1.82271     0.44028     3.21378
H      1.58245    -0.23396     3.85835
O      0.93831     1.51494     3.56663
H      0.30682     1.47453     2.83187
O     -0.06376     1.14412    -1.90786
H     -0.95186     0.77590    -2.03549
O      0.75399    -0.00975    -2.16398
H      0.82372    -0.39106    -1.27533
O     -1.99914    -1.76749    -1.57078
H     -2.68026    -2.37180    -1.88388
O     -1.76802    -0.98824    -2.75104
H     -0.84008    -1.19781    -2.91242
