 24
-909.9740176121636
O     -1.97610    -0.35800     1.06221
H     -1.59007    -0.94425     0.38318
O     -2.39237     0.77352     0.30069
H     -1.63553     1.36665     0.41831
O      0.29597    -1.63597    -1.35690
H      0.98833    -1.61074    -0.67024
O     -0.80515    -2.12971    -0.58310
H     -1.23722    -2.71796    -1.20918
O      1.75783     1.81285    -0.28680
H      2.21280     0.97391    -0.09471
O      0.38597     1.40672    -0.22028
H      0.17494     1.18115    -1.14240
O     -1.43064    -0.42963    -3.22358
H     -0.61929    -0.87141    -2.94691
O     -1.34877     0.73703    -2.39269
H     -2.02147     0.56060    -1.71822
O      2.95930    -0.53626     0.43796
H      3.59016    -0.66142     1.15276
O      1.85621    -1.33530     0.85641
H      1.32344    -0.70574     1.40049
O      0.30222     0.18471     2.41300
H     -0.64392     0.07173     2.18891
O      0.37750     1.54835     2.82850
H      0.70443     1.97049     2.02386
