 40
-1516.641923361896
O      3.06674     1.48315    -0.60014
H      2.37285     2.06898    -0.21753
O      4.08151     1.52559     0.40453
H      4.78202     1.97769    -0.07481
O      0.12776     3.36615    -0.28382
H     -0.67341     3.40751     0.26721
O      1.10797     2.89263     0.64173
H      0.66766     2.12686     1.07814
O     -2.91716     2.23647     1.35679
H     -2.24637     1.69382     1.83183
O     -2.19336     3.43426     1.08975
H     -2.46334     4.01498     1.80895
O     -0.23950    -2.36961     3.67646
H     -0.82544    -2.96907     4.14516
O     -1.09865    -1.93113     2.62890
H     -0.57563    -2.18417     1.83177
O     -0.00532     0.61200     1.46232
H     -0.53988     0.37587     0.67619
O     -1.00316     0.72737     2.47567
H     -1.15236    -0.22630     2.67624
O     -2.43361    -0.53210     0.35836
H     -1.99797    -1.29822    -0.06251
O     -2.96178     0.16941    -0.77421
H     -3.27115     0.97831    -0.34045
O      2.26544    -1.07343    -0.94630
H      2.64159    -0.17381    -0.80230
O      1.68274    -0.94061    -2.25202
H      0.88776    -0.40170    -2.03211
O     -0.41216     0.51251    -1.55720
H     -1.35879     0.26375    -1.60124
O     -0.36972     1.70692    -2.34919
H     -0.13273     2.35023    -1.65421
O      0.25511    -2.31697     0.37562
H      0.99752    -1.85235    -0.07854
O     -0.75963    -2.32101    -0.64125
H     -0.38317    -2.98998    -1.26084
O      0.48061    -4.04188    -2.22129
H      1.20034    -4.63309    -1.97986
O      1.00882    -3.32323    -3.33762
H      1.28818    -2.48503    -2.91005
