 32
-1213.3103645201784
O      1.18903     0.98465     1.69461
H      1.64487     0.47351     0.98962
O      0.66090     2.09552     0.96980
H     -0.29378     1.88677     0.94021
O     -0.32026    -2.41900    -1.29040
H      0.57327    -2.56986    -0.93909
O     -0.92667    -1.88461    -0.11942
H     -0.95877    -0.93585    -0.35189
O      0.14380     3.85282    -2.00310
H      0.82204     4.32653    -2.49187
O      0.78833     2.60333    -1.77953
H      0.98490     2.62620    -0.82402
O     -1.21244     0.65395    -0.75759
H     -0.82245     1.34176    -1.31971
O     -1.81825     1.41525     0.29323
H     -2.22571     0.69496     0.83278
O      1.06031     0.37180    -3.77483
H      1.00846     1.27969    -3.45256
O      1.09519    -0.30079    -2.51715
H      0.32959    -0.89691    -2.55739
O      2.23748    -0.63554    -0.12281
H      1.90503    -0.52499    -1.03444
O      1.87529    -1.98626     0.16038
H      1.44333    -1.90298     1.02956
O      0.56226    -1.92483     2.54701
H      0.88268    -2.28324     3.38047
O     -0.22427    -0.83041     3.00169
H      0.26425    -0.07650     2.60126
O     -2.68910    -0.51523     1.90666
H     -1.91872    -0.74511     2.45677
O     -3.12037    -1.80454     1.46420
H     -2.40412    -2.05424     0.85320
