 36
-1364.9773058987792
O     -0.36360     2.58940    -2.71966
H      0.41362     2.53763    -2.12721
O     -1.03529     3.71732    -2.15349
H     -1.48657     4.07749    -2.92256
O     -2.35921    -0.96651     0.21149
H     -1.97118    -1.74287     0.63496
O     -1.22247    -0.47016    -0.50444
H     -1.35295     0.50261    -0.42649
O      0.89834    -0.30398     2.08566
H      0.98904     0.16150     1.23174
O      1.35423    -1.62652     1.79507
H      0.55087    -2.14871     1.97969
O      3.31387     0.50815    -2.22920
H      3.98869     0.70919    -2.88355
O      2.38850    -0.27556    -2.98528
H      2.23501    -0.99675    -2.35354
O      1.65849     2.25867    -0.99541
H      2.27388     1.58926    -1.35172
O      1.09445     1.52904     0.09729
H      0.41775     2.15724     0.42947
O     -1.12015     2.67694     1.01141
H     -1.50294     2.06798     1.67757
O     -1.72186     2.12484    -0.16239
H     -1.54303     2.81540    -0.83665
O     -2.24776     0.66204     2.34181
H     -2.57241     0.12413     1.59702
O     -1.57139    -0.33124     3.11921
H     -0.65445    -0.25821     2.78959
O      0.37139    -2.54790    -0.94791
H     -0.14293    -1.71647    -0.88122
O      1.70629    -2.05190    -0.82274
H      1.75509    -1.89730     0.14290
O     -0.18730    -4.12717     1.14205
H      0.04308    -3.65789     0.31093
O     -0.85574    -3.07376     1.83589
H     -1.30218    -3.53764     2.55124
