 36
-1364.973475372243
O      0.68767     2.65194     1.44208
H     -0.12439     3.16181     1.27201
O      0.19826     1.67067     2.35884
H      0.94079     1.04189     2.39443
O     -1.83408     0.50469    -1.45845
H     -1.07002     0.83692    -0.94268
O     -2.94295     0.62451    -0.57707
H     -2.75813    -0.04644     0.09895
O      1.69820    -0.54641     2.10686
H      0.95426    -1.06312     2.45490
O      2.74004    -1.51783     2.07128
H      2.86617    -1.62234     1.12008
O      1.48466     1.08981    -1.60522
H      0.94356     0.69750    -2.31725
O      0.60189     0.86813    -0.50016
H      0.82637     1.58289     0.15250
O     -1.12422    -1.24500     2.45940
H     -1.21934    -1.86630     1.72424
O     -2.02532    -0.20128     2.06290
H     -1.49587     0.58803     2.25416
O     -1.63393     3.59285     0.26443
H     -2.08673     4.43943     0.23078
O     -2.58010     2.79084     0.97732
H     -2.81532     2.13102     0.29661
O      0.24623    -1.81878    -2.92235
H      1.20453    -1.77471    -2.73694
O     -0.02506    -0.44317    -3.21219
H     -0.87562    -0.30358    -2.76025
O     -1.21866    -2.20349    -0.56673
H     -1.01101    -2.42808    -1.48980
O      0.07838    -2.06194     0.01169
H      0.20067    -1.09750    -0.03028
O      2.73537    -1.54009    -1.97616
H      2.66825    -0.65325    -1.58420
O      2.84194    -2.40537    -0.84955
H      1.91891    -2.68154    -0.71335
