 36
-1364.981606522361
O      0.41360     1.08707    -0.93025
H      0.24211     0.20492    -1.33089
O      1.83553     1.17921    -0.93502
H      2.00186     1.46488    -0.01572
O      0.02686    -1.42490    -1.86011
H      0.90097    -1.84290    -1.69256
O     -0.78922    -2.09072    -0.89356
H     -1.45647    -1.40460    -0.67106
O     -1.40615     1.00787     2.43542
H     -1.24487     1.85278     1.94934
O     -0.07396     0.56094     2.69934
H     -0.14310    -0.38408     2.45896
O      2.35350     1.31032     1.69803
H      1.50826     1.18226     2.16876
O      3.03188     0.08775     1.98548
H      3.40830    -0.13161     1.12071
O     -0.94051     2.84858     0.60587
H     -0.49707     2.34267    -0.10122
O     -2.20962     3.16427     0.04579
H     -2.63319     2.28878     0.02996
O     -2.34401    -0.35513     0.34743
H     -2.09180     0.12019     1.17392
O     -3.06310     0.63977    -0.38265
H     -2.68712     0.53032    -1.27723
O      2.36506    -2.19717    -0.88780
H      2.14870    -2.42508     0.03575
O      3.24887    -1.09099    -0.69296
H      2.71567    -0.34265    -1.02168
O     -2.30069    -0.81788    -3.43751
H     -1.43835    -1.25095    -3.38098
O     -1.97041     0.43629    -2.83989
H     -2.15447     1.06454    -3.54722
O      1.49997    -2.29529     1.65497
H      1.93338    -1.53391     2.06982
O      0.13562    -1.88359     1.67726
H     -0.15911    -2.08049     0.76727
