 40
-1516.640923670688
O      3.59706     3.06659    -0.38186
H      3.37968     2.20070    -0.78596
O      2.69361     3.93489    -1.06657
H      3.28080     4.43593    -1.64259
O      0.28949    -1.56441    -1.63443
H      0.83657    -0.77342    -1.87401
O     -0.36523    -1.91167    -2.85219
H     -1.20282    -1.44339    -2.74316
O     -0.04634     0.43800     2.33374
H     -0.69049    -0.29576     2.34614
O     -0.86838     1.53880     1.92817
H     -0.27092     1.98102     1.29756
O     -0.39808     2.76448    -1.10006
H     -0.92175     1.94591    -0.97671
O      0.65641     2.51236    -0.17007
H      1.30035     3.22336    -0.38654
O     -2.71831    -0.05927    -1.49425
H     -3.37123    -0.13245    -0.78218
O     -1.59468     0.41275    -0.75929
H     -1.12787    -0.40743    -0.50765
O      0.16720    -3.95929     0.57168
H      0.04868    -4.84908     0.22751
O      1.33057    -3.51593    -0.12388
H      0.94593    -2.82590    -0.70753
O     -3.60340     0.55846     2.15397
H     -2.86116     1.11115     1.86099
O     -4.46462     0.61351     1.02105
H     -5.20421     1.13792     1.34736
O      1.65512     0.71724    -1.95249
H      1.20449     1.43457    -1.47066
O      2.87582     0.58401    -1.19792
H      2.57267     0.03046    -0.43721
O      2.56850    -1.62508     1.60790
H      2.31861    -2.47466     1.22151
O      1.79360    -0.77815     0.75415
H      1.24474    -0.25800     1.38374
O     -1.72021    -2.00179     0.67102
H     -1.04103    -2.70317     0.66897
O     -1.76144    -1.62372     2.05230
H     -2.64438    -1.22751     2.09350
