 28
-1061.6410708556336
O     -1.15722     0.53204    -0.97949
H     -0.37135     1.00216    -0.59935
O     -0.77629     0.38373    -2.33989
H     -0.00771    -0.19416    -2.24596
O     -0.51858     0.12285     2.14668
H     -0.37728    -0.70408     1.65635
O     -1.93260     0.27413     1.95697
H     -1.98646     1.23478     1.78709
O      1.04368     1.55773     0.01875
H      1.74602     0.92710     0.25109
O      0.79937     2.22297     1.26457
H      1.91924    -1.88634    -2.85027
O     -2.65008     2.89788    -0.02606
H     -2.49826     2.00159    -0.36124
O     -2.02179     2.84884     1.25137
H     -1.11454     3.14472     1.07683
O     -0.84876    -2.20529     0.92568
H     -1.61943    -2.56104     1.37742
O     -1.31902    -2.06556    -0.41585
H     -1.42718    -1.08998    -0.49427
O      0.91191    -3.01169    -1.72169
H      0.04553    -2.75350    -1.36155
O      1.44321    -1.71928    -2.03239
H      0.34005     1.50002     1.74470
O      2.74277    -0.82186     0.28958
H      2.36757    -1.32962    -0.44937
O      4.07747    -0.59475    -0.17479
H      4.58169    -0.94229     0.56591
