 36
-1364.9735777190438
O      2.12231     1.48186     0.38502
H      1.82266     0.91423    -0.36259
O      3.11550     2.28309    -0.24958
H      3.91134     1.79160    -0.01810
O     -1.68683    -2.34744     0.45432
H     -2.09298    -1.96124    -0.35326
O     -2.31825    -1.59307     1.48757
H     -1.57104    -1.05551     1.81751
O      0.13804     0.89021     2.90003
H      0.02566     1.69686     2.37808
O     -0.15247    -0.09919     1.92209
H      0.71298    -0.49388     1.72044
O      3.92143    -1.67798    -0.79438
H      4.70341    -2.16345    -1.07992
O      4.25492    -0.33051    -1.11266
H      3.54079    -0.11447    -1.72915
O     -0.08277     2.97598     0.67484
H      0.81980     2.61428     0.56686
O     -0.79833     2.18519    -0.27642
H     -1.45043     1.73122     0.28205
O     -3.99023     0.21962     0.48567
H     -3.53305    -0.53181     0.92182
O     -3.28262     1.30921     1.06947
H     -3.98044     1.77260     1.54379
O     -0.01727     0.29690    -2.02047
H     -0.20105     1.09195    -1.47369
O      1.29411    -0.08149    -1.58562
H      1.14279    -0.99186    -1.23295
O     -3.27846    -0.13640    -2.15267
H     -3.60894     0.09704    -1.27049
O     -2.31215    -1.12703    -1.81100
H     -1.48359    -0.67064    -2.05056
O      1.72446    -1.84076     0.77785
H      2.59208    -1.86590     0.34083
O      0.91436    -2.35825    -0.27556
H      0.02824    -2.41688     0.14385
