 36
-1364.9776793084168
O      0.83787     1.41338     0.58466
H      0.20323     1.33397    -0.16274
O      2.07941     1.43332    -0.12378
H      2.56029     0.76502     0.38388
O     -0.67245    -1.98514    -0.80097
H     -1.18098    -1.18887    -1.04263
O     -1.50159    -2.65267     0.14938
H     -1.34707    -2.09824     0.93510
O     -1.66647     0.34926     1.54715
H     -1.43592     1.04383     2.18779
O     -0.81852    -0.72949     1.91270
H      0.01601    -0.49807     1.46021
O      1.96497    -1.14485     0.89864
H      1.70571    -2.08568     0.86393
O      3.23219    -1.17759     0.22937
H      2.94968    -1.30049    -0.69778
O     -0.49566     2.89238     2.35480
H      0.20095     2.52936     1.77353
O     -0.98913     3.95443     1.53949
H     -1.05236     4.66996     2.17750
O     -2.70750     2.88391    -0.35328
H     -2.28455     3.26566     0.43637
O     -3.69673     2.00677     0.17835
H     -3.17498     1.20824     0.34737
O      1.91757    -1.24057    -2.12047
H      1.08941    -1.61527    -1.77797
O      1.51711     0.08737    -2.44432
H      1.83150     0.60595    -1.68246
O     -0.82478     1.38742    -1.45061
H     -1.64993     1.91107    -1.31970
O     -1.25463     0.28022    -2.24402
H     -0.47948     0.21342    -2.81720
O      1.93793    -4.11365    -0.66364
H      2.36703    -4.90689    -0.32759
O      1.17144    -3.73323     0.47834
H      0.26426    -3.76783     0.13838
