 36
-1364.972300864615
O      1.95370     2.29871     0.38268
H      1.67872     2.22055     1.30889
O      0.92097     3.09388    -0.19511
H      0.09991     2.58519    -0.00326
O     -1.96849    -2.32935     2.81511
H     -1.12691    -2.57524     2.40723
O     -2.00487    -0.93779     2.48927
H     -2.84529    -0.82958     2.02705
O      0.06494     0.85105     3.64700
H     -0.77746     0.37149     3.60957
O      0.33135     1.01452     2.26843
H      0.43482     0.10516     1.90854
O     -0.16878     2.42050    -2.88689
H      0.04850     3.00552    -2.14640
O      0.07751     1.16374    -2.27597
H      1.04278     1.01950    -2.33897
O     -1.44357    -0.96360    -1.97005
H     -0.94175    -0.14742    -2.20354
O     -1.98546    -0.59702    -0.70249
H     -1.35226    -1.00378    -0.08708
O     -1.97090     1.88429     1.35190
H     -1.13230     1.72542     1.83139
O     -1.46011     1.94737     0.01114
H     -1.78854     1.10924    -0.37647
O      2.63173    -0.11975    -0.54776
H      2.51938     0.82999    -0.33567
O      2.41044    -0.13059    -1.95822
H      2.08891    -1.03842    -2.09321
O      0.55660    -1.24144     0.76375
H      1.37776    -1.01660     0.26363
O      0.68809    -2.63295     1.06172
H      0.58050    -2.98871     0.16289
O      0.19615    -3.00055    -1.59738
H     -0.47374    -2.29889    -1.78584
O      1.29853    -2.56514    -2.38062
H      1.16236    -3.03467    -3.20834
