 24
-909.9796393730804
O     -1.94988    -2.66217     0.36349
H     -2.63675    -3.31753     0.51377
O     -2.68364    -1.44261     0.43260
H     -2.08373    -0.91562     0.99335
O     -0.36747    -1.44187    -1.38221
H     -0.95047    -2.00853    -0.83227
O      0.87725    -1.54491    -0.68018
H      1.36889    -0.80789    -1.09441
O      2.04929     0.61264    -1.67098
H      2.33620     0.91742    -2.53760
O      3.20555     0.84442    -0.85884
H      2.79291     1.30004    -0.10106
O     -2.10678     1.34360    -0.66371
H     -2.76230     1.33362    -1.36823
O     -0.88441     1.18103    -1.38399
H     -0.75902     0.20608    -1.38127
O     -0.83730    -0.02156     1.82320
H     -0.63747     0.90384     1.58891
O      0.47248    -0.60219     1.80671
H      0.51172    -1.03738     0.93161
O      1.81936     1.63509     1.35792
H      1.55313     0.76362     1.71739
O      0.52186     2.12993     1.00496
H      0.44830     1.92675     0.06075
