 20
-758.3048367312208
O     -0.57774    -0.71639     1.77137
H     -1.53200    -0.64466     1.58444
O     -0.17581    -1.27270     0.50908
H      0.79783    -1.28583     0.59446
O      2.48904    -1.73592    -0.74164
H      2.27605    -0.87482    -1.13791
O      2.46724    -1.37815     0.64464
H      3.00529    -2.07657     1.03169
O      0.05696     1.74836     0.83122
H     -0.10492     0.85851     1.21775
O     -1.25113     2.33178     0.82597
H     -1.26501     2.80094     1.66511
O      1.79183     0.65650    -1.85847
H      1.97402     0.88960    -2.77280
O      0.36175     0.62614    -1.85739
H      0.17688     1.21228    -1.10740
O     -2.53337    -0.34146    -0.87235
H     -1.73307    -0.86924    -0.74714
O     -2.76544     0.10993     0.46358
H     -2.37713     1.00063     0.43232
