 32
-1213.3091546964731
O      1.63525    -1.41945     0.72887
H      1.73613    -1.89131    -0.12096
O      2.91078    -0.80970     0.92010
H      2.81104    -0.03499     0.33646
O      1.61104    -2.77105    -1.61416
H      1.73920    -3.72413    -1.62629
O      0.31427    -2.64882    -2.20004
H     -0.17771    -2.20518    -1.47783
O      0.01137     0.74658    -2.64971
H     -0.71035     1.25916    -2.24065
O     -0.71740    -0.15051    -3.48228
H     -0.24901    -0.97673    -3.30530
O     -1.99274     2.06536    -1.38083
H     -2.80815     2.35106    -1.79983
O     -2.48296     1.14315    -0.40586
H     -2.23874     1.57778     0.45038
O      0.95945     1.18714     0.19176
H      0.56246     0.29843     0.27162
O      1.94941     0.95316    -0.80611
H      1.38489     0.71943    -1.57329
O     -1.47994    -1.72315     0.68913
H     -0.82310    -1.43965     1.34187
O     -0.96664    -1.05820    -0.46679
H     -1.59181    -0.30426    -0.56785
O      1.05273     0.36069     3.11122
H      1.54159    -0.22857     2.51067
O     -0.27421    -0.14074     2.98664
H     -0.40670    -0.61040     3.81785
O     -1.74970     1.92076     2.04567
H     -1.31088     1.18384     2.51062
O     -0.70700     2.89526     1.99917
H     -0.03507     2.43850     1.46331
