 32
-1213.3130403469593
O      2.89525     0.83983     1.96878
H      3.39247     1.09464     2.75141
O      2.44753     2.08900     1.45515
H      1.48861     2.02441     1.63519
O     -0.91200    -1.68508    -0.43829
H     -0.20887    -1.92118    -1.07608
O     -2.05125    -1.56422    -1.29074
H     -1.86591    -0.67997    -1.67001
O     -1.22072     0.91574    -1.67391
H     -0.26778     1.01631    -1.45064
O     -1.84578     1.77697    -0.71093
H     -2.62237     1.23481    -0.44415
O     -0.25818     1.79896     1.41147
H     -0.81000     2.00668     0.62256
O     -0.68970     0.47528     1.71937
H     -0.47818    -0.00968     0.89795
O      1.36358     1.16029    -1.10184
H      1.93878     1.71660    -0.55007
O      2.08267     1.06553    -2.34086
H      2.28281     0.11689    -2.32181
O      2.28999    -1.60082    -1.59942
H      2.01684    -1.44593    -0.66704
O      1.11120    -2.22796    -2.10113
H      1.44341    -3.08038    -2.39824
O      1.02233    -2.12760     1.79010
H      0.12344    -2.24438     1.45030
O      1.45232    -1.11992     0.88004
H      1.90413    -0.46713     1.45072
O     -3.72389     0.21184     1.62673
H     -2.80922     0.47876     1.80438
O     -3.76153     0.19707     0.20038
H     -3.48221    -0.70384    -0.03270
