 36
-1364.9766189441143
O      2.08152     1.31948    -0.38030
H      1.48787     1.83842     0.19911
O      1.25949     1.17786    -1.53969
H      0.85696     0.29371    -1.38316
O      2.14148    -0.76813     1.35189
H      2.11171    -0.11728     0.61455
O      1.10976    -0.35338     2.25069
H      0.96780     0.58838     2.02972
O     -2.04885     1.13393     0.41955
H     -2.04114     0.79653    -0.50200
O     -3.04858     0.31236     1.02681
H     -2.50093    -0.40462     1.39410
O      0.01037     4.20052    -1.13402
H     -0.66642     4.85701    -1.31617
O     -0.64759     3.00850    -1.55786
H      0.12467     2.40942    -1.64977
O     -1.72903     0.31073    -2.14013
H     -2.01744     0.80767    -2.91342
O     -2.16283    -1.02419    -2.42620
H     -1.30407    -1.45738    -2.51735
O      0.27303    -1.18315    -0.96279
H     -0.36493    -1.55362    -0.30679
O      0.57649    -2.30017    -1.79076
H      1.08079    -2.82634    -1.15107
O      0.23341     2.00334     1.31508
H     -0.68357     1.75373     1.01544
O      0.19409     3.41334     1.45791
H      0.14005     3.69077     0.52512
O      1.55003    -3.38263     1.37843
H      1.91926    -2.47249     1.40336
O      1.97057    -3.80047     0.08273
H      2.61052    -4.48880     0.28542
O     -1.29001    -1.55387     2.02453
H     -0.42393    -1.10764     2.11186
O     -1.03596    -2.46679     0.94905
H     -0.33185    -3.03797     1.30950
