 24
-909.9828077507292
O     -1.51104    -1.00118     0.96603
H     -2.10358    -0.52728     0.33778
O     -1.06415    -2.06398     0.09742
H     -0.45835    -2.51293     0.71068
O      0.51296    -0.75824    -1.64750
H     -0.17384    -1.23018    -1.13121
O     -0.25058     0.26018    -2.30655
H      0.28396     1.05287    -2.12476
O      2.28891    -0.63957     0.39050
H      1.70479    -0.56747    -0.38820
O      2.00431     0.57464     1.09662
H      1.58465     0.20812     1.89961
O     -2.62759     0.24537    -1.07948
H     -1.90649     0.28106    -1.73877
O     -2.62669     1.55015    -0.52086
H     -1.69787     1.67621    -0.28271
O      0.57077    -1.05543     2.62856
H     -0.30922    -0.89484     2.24547
O      0.89657    -2.27465     1.93497
H      1.60255    -1.92991     1.35988
O      0.33203     2.23102    -0.23356
H      0.99912     1.68251     0.22735
O      1.01235     2.50018    -1.46027
H      0.83844     3.43920    -1.57217
