 40
-1516.6442135047735
O      0.20153     1.55575    -2.37121
H     -0.76151     1.61271    -2.21071
O      0.71293     2.27651    -1.23694
H      1.06629     1.54517    -0.68247
O     -1.80590    -0.80207    -2.91015
H     -1.52746    -1.59781    -3.38344
O     -2.89411    -1.27690    -2.10020
H     -2.49004    -1.24897    -1.21361
O      1.91369    -1.37785     3.43086
H      1.73098    -2.07189     2.76046
O      3.03864    -0.72267     2.84799
H      3.73093    -0.91245     3.49163
O     -1.33743    -0.86090     0.10758
H     -0.55518    -1.08135    -0.44517
O     -1.14816    -1.66587     1.26052
H     -0.99367    -0.97843     1.94758
O     -2.38600     1.53953    -1.62709
H     -2.83875     0.87400    -2.17010
O     -2.99119     2.78191    -2.03730
H     -2.59840     3.33667    -1.34413
O      1.56547     0.29991     0.31602
H      1.72019     0.57125     1.23834
O      2.84546    -0.16042    -0.13566
H      2.58571    -0.33678    -1.06266
O     -1.33566     3.41960     0.06680
H     -0.52238     3.10128    -0.38393
O     -1.61905     2.34076     0.96367
H     -2.01844     1.69024     0.36069
O      1.14395    -3.02829     1.45269
H      0.29057    -2.60959     1.20690
O      1.95671    -2.86336     0.29244
H      2.45738    -2.05671     0.49738
O     -0.35269     0.08270     3.11828
H      0.43703    -0.37843     3.46124
O      0.25645     1.28246     2.63707
H     -0.46790     1.67844     2.12013
O      1.45820    -0.79114    -2.29489
H      0.89903     0.00282    -2.44973
O      0.56332    -1.67774    -1.62857
H      1.16547    -2.26291    -1.12508
