 20
-758.3120494795825
O     -1.59991    -1.45146     0.81499
H     -1.78575    -0.88172     0.04641
O     -1.43334    -0.42046     1.81179
H     -0.47197    -0.50312     1.95142
O      1.78317     1.38695     0.25042
H      2.58722     1.84214    -0.02020
O      1.08144     2.41598     0.95078
H      0.23289     2.38826     0.48132
O      1.02763    -1.85781     0.41274
H      0.07843    -2.06558     0.50908
O      1.15323    -0.89280     1.46975
H      1.44409    -0.09726     0.98554
O      0.09145    -1.29648    -2.76175
H      0.53609    -1.06396    -3.58176
O      0.70834    -0.37311    -1.86500
H      1.01980    -0.97140    -1.15911
O     -1.43152     1.66856     0.07406
H     -1.61171     1.17888     0.89592
O     -1.61044     0.60156    -0.86355
H     -0.72230     0.47943    -1.25030
