 32
-1213.3119824816094
O      2.67052    -1.51667     1.52826
H      2.64568    -0.74879     0.91226
O      2.81796    -2.62043     0.63740
H      3.77214    -2.72502     0.57612
O     -0.34708    -2.05633    -0.26168
H     -0.47281    -1.14702     0.06413
O      0.84042    -1.93155    -1.04796
H      1.50198    -2.36182    -0.47182
O      0.73743     1.91056     1.57458
H      0.29215     1.10248     1.88844
O     -0.39469     2.72601     1.25043
H     -0.16428     2.97508     0.32266
O      0.33803     2.90043    -1.26978
H      0.95263     2.16400    -1.46102
O     -0.85247     2.47391    -1.93963
H     -1.16617     1.76484    -1.34910
O      1.72558     0.60600    -1.24655
H      1.34006    -0.29652    -1.22332
O      2.47376     0.66974    -0.03012
H      1.91489     1.27743     0.50335
O     -1.75517     0.50850    -0.33075
H     -2.44436    -0.01115    -0.79767
O     -2.45011     1.00088     0.81330
H     -1.86018     1.74700     1.02588
O     -0.47868    -0.39462     2.12916
H     -1.43321    -0.41246     1.95555
O     -0.23602    -1.63378     2.79079
H      0.61976    -1.85653     2.40075
O     -3.21130    -1.18592    -1.72818
H     -3.88476    -1.24443    -2.41159
O     -2.00952    -1.32146    -2.49427
H     -1.51239    -1.93151    -1.93127
