 40
-1516.6421762705786
O      3.34895    -0.10093    -2.70100
H      3.61465    -0.28050    -3.60917
O      2.08349     0.54350    -2.88844
H      1.46112    -0.18659    -2.69645
O     -0.10554    -1.19409     1.03650
H      0.24876    -0.44425     0.51693
O     -1.50044    -1.16118     0.77827
H     -1.82228    -0.38583     1.29503
O      1.37991     2.13287     2.43430
H      1.39547     2.07963     1.46708
O      0.27902     1.26665     2.71404
H      0.65634     0.58707     3.29488
O     -2.36992    -0.46571    -2.01082
H     -1.39591    -0.43829    -1.97785
O     -2.64015    -1.78480    -1.53665
H     -2.30299    -1.71842    -0.62047
O     -2.08470     2.14104     1.85623
H     -1.20126     1.84503     2.15319
O     -2.81058     0.90681     1.90574
H     -3.37381     1.03322     1.11549
O      0.93886     2.07843    -0.63464
H      1.58660     1.79772    -1.30210
O     -0.09085     1.11893    -0.88609
H     -0.89775     1.67495    -0.95713
O     -3.44319     1.49482    -0.58047
H     -3.08695     0.77411    -1.14392
O     -2.42487     2.49687    -0.72532
H     -2.28820     2.72019     0.21596
O      0.11862    -2.66484    -2.85720
H     -0.82695    -2.72862    -2.65952
O      0.45991    -1.48601    -2.12710
H      0.95839    -1.81470    -1.35671
O      1.08258    -1.50992     3.36674
H      0.64144    -1.51970     2.49284
O      2.45487    -1.50001     2.97455
H      2.72545    -2.40999     3.13164
O      2.43758    -0.28061     0.53610
H      2.56236    -0.65594     1.42968
O      2.66735    -1.43864    -0.27152
H      3.19423    -1.03955    -0.97919
