 24
-909.9769592466315
O     -2.54082    -1.55121     0.52925
H     -1.73048    -1.22597     0.96600
O     -2.29453    -1.22997    -0.84083
H     -2.31885    -0.25531    -0.85592
O     -0.18827    -1.30547    -2.91811
H     -0.76361    -1.90968    -3.39764
O      0.03758    -1.99337    -1.68285
H     -0.81206    -1.79101    -1.21507
O      2.30913    -0.79163    -0.67569
H      1.54037    -1.31075    -0.97163
O      1.68666     0.30819    -0.01749
H      1.22243     0.77250    -0.74534
O     -1.32907     1.31480    -1.01745
H     -0.99767     1.29667    -0.09610
O     -0.12604     1.13487    -1.77669
H     -0.31636     0.31705    -2.27499
O      1.38743     2.29653     2.48800
H      1.59758     2.81931     3.26657
O      2.11117     1.09082     2.74726
H      2.33082     0.86188     1.83590
O     -0.70682     0.90339     1.54496
H     -0.02100     1.33822     2.08546
O     -0.27046    -0.46874     1.54010
H      0.49786    -0.37919     0.93675
