 32
-1213.3028148542344
O      2.42647    -0.99719     1.51191
H      1.83938    -1.16211     0.75997
O      2.69817     0.40111     1.36832
H      2.98401     0.45395     0.42912
O     -0.99534    -1.94354     0.10652
H     -0.90573    -1.81268     1.07917
O      0.05465    -1.08466    -0.34056
H     -0.26337    -0.19289    -0.10501
O     -1.08761     1.40824    -1.50653
H     -1.25364     1.97896    -2.26728
O     -2.05668     1.85811    -0.55252
H     -2.71504     1.13894    -0.60873
O     -0.67174     1.58834     1.79759
H     -1.39211     1.87449     1.21363
O      0.39256     1.58724     0.83104
H      1.14954     1.23294     1.33806
O      2.31574     1.75484    -1.50462
H      1.56836     1.84211    -0.89246
O      2.69807     0.40551    -1.26579
H      2.25840    -0.09060    -1.99283
O      0.12237    -0.99430    -3.03051
H      0.08894    -1.11384    -2.06279
O      1.54486    -0.99253    -3.25105
H      1.59444    -0.70103    -4.16579
O     -0.58400    -0.99320     2.51574
H     -0.65121    -0.02457     2.37602
O      0.49197    -1.08642     3.44661
H      1.25537    -1.13246     2.84766
O     -3.83361    -0.52817     0.82853
H     -4.59610    -1.10752     0.73562
O     -3.27530    -0.58832    -0.48490
H     -2.48576    -1.16195    -0.35864
