 24
-909.9790471213616
O     -1.02270    -0.76765     1.60122
H     -1.76198    -0.83028     0.97359
O     -0.55569    -2.11087     1.73199
H      0.19421    -2.11861     1.10364
O      1.02244     0.48664    -1.97225
H      1.62566     0.27951    -1.23188
O      0.39994    -0.79428    -2.13744
H     -0.53204    -0.58951    -1.94441
O      2.15545    -0.77238     0.03895
H      1.99760    -0.52321     0.96834
O      1.48083    -2.03354    -0.07714
H      1.05654    -1.88892    -0.94385
O     -2.58713     0.28360    -0.46955
H     -2.00353     1.06704    -0.54979
O     -2.19734    -0.45206    -1.62345
H     -2.93270    -0.29856    -2.22559
O      0.11980     3.02186    -0.16289
H      0.43010     2.41218     0.52404
O     -0.74007     2.17612    -0.92323
H     -0.09840     1.72127    -1.50720
O      1.66514     0.24114     2.46888
H      1.12488    -0.19167     3.14106
O      0.74801     1.13420     1.84021
H      0.00554     0.52251     1.64681
