 40
-1516.640738821709
O      1.86056     3.49785    -0.15555
H      1.61055     2.79788    -0.79238
O      0.64590     3.60762     0.58214
H      0.38491     4.51590     0.40205
O     -0.12457     0.75954     1.90647
H      0.71550     1.20570     2.11263
O     -1.10135     1.67044     2.39516
H     -1.79692     1.04692     2.64042
O      1.74526    -3.27538    -1.32250
H      0.97592    -3.16297    -1.91748
O      2.83222    -2.72437    -2.05699
H      2.66080    -1.77348    -1.98255
O     -3.39214    -0.28292     2.00125
H     -3.20407    -1.03799     1.40202
O     -4.49692     0.34000     1.35073
H     -5.19020     0.21703     2.00687
O      2.77664     0.77405     1.96492
H      2.62047    -0.11046     1.60633
O      3.47703     1.37510     0.87498
H      3.09362     2.26518     0.87209
O      2.31090     0.32652    -1.36643
H      2.78086     0.67332    -0.58275
O      1.28606     1.31453    -1.55586
H      0.56041     0.77792    -1.92199
O     -1.90498     0.85893    -0.19111
H     -2.68355     1.04322     0.36402
O     -1.61399     2.10815    -0.80319
H     -0.93116     2.43751    -0.20098
O     -2.39246    -2.12338     0.27382
H     -1.41985    -2.07965     0.29397
O     -2.68905    -1.52993    -0.99829
H     -2.35375    -0.61741    -0.87501
O      0.18411    -1.39020     0.41277
H      0.02907    -0.54222     0.90275
O      1.54412    -1.68516     0.76014
H      1.73349    -2.34096     0.04082
O     -0.63686    -2.49183    -2.37708
H     -1.54777    -2.37550    -2.03680
O     -0.12231    -1.16868    -2.16572
H      0.04020    -1.22882    -1.20296
