 24
-909.9775212169271
O     -2.38550    -1.79024     0.03699
H     -3.02460    -2.33115     0.51405
O     -2.27452    -0.63203     0.86473
H     -1.39657    -0.78462     1.27891
O     -0.18129    -1.73665    -1.50684
H     -0.95181    -1.90836    -0.93319
O      0.89691    -2.25785    -0.72774
H      1.61766    -1.64086    -0.96198
O      2.63550    -0.23387    -0.56889
H      2.21918     0.03026     0.27748
O      2.87547     1.02276    -1.19443
H      1.99446     1.24268    -1.52569
O     -1.56027     1.11699    -1.47555
H     -1.89396     0.77777    -0.63331
O     -0.15079     0.91563    -1.33466
H     -0.07536    -0.04520    -1.52487
O      1.02453     0.06497     1.53782
H      0.34610     0.76487     1.63186
O      0.24791    -1.13945     1.62784
H      0.59202    -1.64754     0.86349
O     -0.84551     1.93773     1.69528
H     -1.22090     2.56201     2.32678
O     -0.01357     2.78162     0.89406
H     -0.19412     2.40019     0.02242
