 20
-758.3154287982132
O     -1.16793    -2.46096    -0.44430
H     -0.62439    -1.93522    -1.07037
O     -0.17021    -2.83316     0.50114
H      0.02494    -3.74344     0.25837
O      1.84358    -0.11012     0.45998
H      1.63244     0.84789     0.44783
O      0.92949    -0.60403     1.43794
H      0.67578    -1.46693     1.05756
O      1.08109     2.35113    -0.16380
H      0.71439     2.11507    -1.03133
O      0.03835     3.15447     0.39489
H     -0.52939     2.48588     0.81334
O     -0.16796     0.48230    -1.86961
H     -0.85837     0.41418    -1.18605
O      0.47792    -0.78759    -1.72772
H      1.12833    -0.58088    -1.02733
O     -1.26431     0.89824     1.34486
H     -0.44166     0.37619     1.45137
O     -1.84105     0.28860     0.18321
H     -1.92182    -0.64773     0.42087
