 36
-1364.9816227655517
O      2.42591     0.64929     0.08690
H      2.32275     0.85217     1.04411
O      2.03738    -0.72655     0.05373
H      2.33827    -1.00114    -0.83660
O     -2.84199    -0.67359     1.43975
H     -1.88388    -0.84831     1.54727
O     -3.02999     0.42356     2.32859
H     -2.62472     1.14426     1.81422
O      2.11694     1.25332     2.69878
H      2.42236     2.02803     3.18116
O      0.74947     1.16298     3.09111
H      0.31235     1.44647     2.25855
O      2.69671    -1.45639    -2.44017
H      3.45704    -1.48562    -3.02934
O      1.61565    -1.16851    -3.32160
H      1.42861    -0.24576    -3.06614
O      1.37883     1.32176    -2.24446
H      1.79367     1.17830    -1.36459
O      0.28277     2.16536    -1.91162
H     -0.47277     1.59420    -2.11230
O     -0.22175    -1.12656     1.42125
H      0.56422    -0.94988     0.85583
O      0.34846    -1.63611     2.61862
H      0.35789    -0.83077     3.15616
O     -3.22003     0.01582    -1.09913
H     -3.20052    -0.27536    -0.15573
O     -1.86175     0.37865    -1.31074
H     -1.40619    -0.49445    -1.32595
O     -0.15916     1.91319     0.71973
H      0.11999     2.24102    -0.16050
O     -1.58530     2.01258     0.66091
H     -1.75720     1.43912    -0.12553
O     -0.84384    -3.08588    -0.78202
H     -0.51747    -2.91987     0.11243
O     -0.44022    -1.87266    -1.42493
H      0.05847    -2.18321    -2.19490
