 20
-758.3045762154331
O      0.81084    -1.92419    -0.56014
H      0.44303    -1.62759     0.30302
O      2.20760    -1.73329    -0.34668
H      2.50265    -2.64141    -0.23227
O     -0.10870    -1.07307     1.80333
H     -0.70252    -0.30931     1.87505
O      1.03223    -0.69298     2.57093
H      1.54826    -0.21959     1.90045
O      1.23074     1.25237     0.35913
H      0.40472     1.57638     0.75107
O      1.25740     2.00694    -0.85967
H      1.05131     1.32666    -1.51594
O     -1.33624    -0.06264    -1.79247
H     -1.82598    -0.81550    -2.14116
O     -0.04372    -0.18705    -2.39312
H      0.37690    -0.84916    -1.79815
O     -1.60307     1.10061     0.57346
H     -1.50925     0.67563    -0.30705
O     -2.99205     1.40870     0.58883
H     -2.96855     2.36572     0.49006
