 36
-1364.9718250346787
O      1.42631     1.53575     1.45134
H      0.85968     1.48051     2.24321
O      1.76951     0.15827     1.27347
H      2.37746     0.21116     0.50742
O     -0.59723    -2.94077    -1.09005
H     -0.12350    -2.77984    -0.24076
O      0.41727    -2.59728    -2.02767
H      0.50051    -3.40313    -2.54430
O     -1.41528     0.49801     2.94372
H     -1.39683     0.75316     1.98727
O     -0.36944     1.31135     3.46932
H     -0.85644     2.03593     3.87182
O     -2.80840    -1.37442    -0.90592
H     -2.07904    -1.98826    -1.11201
O     -3.26111    -1.86080     0.35423
H     -2.46966    -1.74764     0.90300
O      0.53984     2.99958    -1.11319
H      0.81931     2.77450    -0.21261
O     -0.58129     3.85318    -0.91860
H     -1.31691     3.22447    -0.90956
O     -1.19833     1.01069     0.39518
H     -0.58477     0.60007    -0.25918
O     -2.37783     1.19672    -0.39692
H     -2.64099     0.26194    -0.55940
O      0.94971     0.74599    -2.45084
H      0.68721     1.62661    -2.11044
O      0.42010    -0.05345    -1.39362
H      0.57009    -0.96441    -1.72334
O      3.86138    -0.86543    -1.48492
H      4.75581    -0.53116    -1.58851
O      3.19798     0.31293    -1.03585
H      2.53462     0.46811    -1.73921
O     -0.73075    -2.14528     1.99523
H     -0.63966    -1.33500     2.52012
O      0.46344    -2.17714     1.20888
H      0.87199    -1.28821     1.32005
