 28
-1061.6409269821243
O     -2.65266    -0.28923     2.11603
H     -2.81906    -0.62867     2.99943
O     -1.34938    -0.80114     1.87599
H     -1.51888    -1.57260     1.27053
O      1.34470    -0.42976     1.50430
H      0.39518    -0.47743     1.70755
O      1.58515     0.97950     1.58092
H      2.03076     1.13248     0.72536
O     -1.42047    -2.67326     0.03851
H     -0.52649    -2.64009    -0.36814
O     -2.27871    -2.40716    -1.07101
H      1.43709    -1.57197     0.13945
O     -0.39120     2.65590     0.43332
H      0.24042     2.31125     1.08803
O      0.30173     3.77969    -0.09713
H     -0.29613     4.48986     0.15501
O     -2.04784     0.30291    -0.84634
H     -1.97501     0.35111     0.11736
O     -0.71263     0.60171    -1.26315
H     -0.53482     1.45754    -0.82423
O      1.14317    -1.24438    -1.70353
H      0.39458    -0.64256    -1.52390
O      1.12706    -2.13618    -0.59289
H     -2.27834    -1.43531    -1.08830
O      2.23753     1.40931    -0.96263
H      2.42623     2.12985    -1.57391
O      3.20781     0.41911    -1.32129
H      2.60105    -0.29329    -1.60694
