 20
-758.3017915739749
O     -0.08101    -1.31253     1.06389
H      0.74815    -1.58250     0.61836
O      0.38069    -0.17085     1.79236
H      0.23060    -0.45843     2.69896
O      2.11055    -1.63180    -0.49961
H      1.88268    -0.89266    -1.10444
O      1.71468    -2.77181    -1.26437
H      2.56045    -3.21654    -1.36891
O     -1.05583     1.97236     1.01144
H     -0.40351     1.29448     1.27213
O     -1.81281     2.10337     2.21485
H     -1.89228     3.05976     2.27115
O      1.28382     1.45064    -0.83841
H      1.39182     2.22119    -1.40466
O      0.99516     0.44528    -1.81444
H      0.04531     0.25558    -1.63534
O     -1.44335    -0.43278    -1.14447
H     -1.21040    -0.88974    -0.31695
O     -2.51367     0.42464    -0.72922
H     -2.05577     1.07011    -0.16183
