 12
-454.9689460290163
O      2.50311     0.01282    -0.35228
H      2.30516    -0.74624     0.20917
O      3.47863     0.70284     0.43835
H      4.25963     0.61827    -0.11968
O     -0.24000    -0.71671     0.70458
H     -0.97927    -1.02460     0.15864
O     -0.24969     0.68175     0.37193
H      0.58693     0.76256    -0.10969
O     -3.00734     0.49723    -0.76487
H     -2.18338     0.85742    -0.40086
O     -2.84178    -0.89662    -0.46810
H     -3.43061    -1.00842     0.28593
