 40
-1516.6378385302037
O      1.00599    -1.49263    -1.64477
H      1.91021    -1.33022    -1.29748
O      0.89175    -0.48405    -2.66308
H      0.90682     0.31823    -2.10578
O     -0.25111    -1.98652     1.09346
H     -0.90451    -2.24011     0.37890
O     -0.26144    -0.57427     0.88698
H      0.23881    -0.48222     0.05324
O      2.55287     2.02220     3.02305
H      2.42368     2.95716     2.83998
O      1.36720     1.46616     2.46237
H      1.51153     0.51178     2.63555
O     -1.89403    -0.32540    -2.69249
H     -0.97762    -0.30716    -3.01923
O     -2.00472     0.96834    -2.07930
H     -2.95884     0.99722    -1.86518
O     -1.21164     2.23022     0.96249
H     -0.68323     2.00520     1.74217
O     -2.19554     1.19352     0.97014
H     -1.63725     0.39395     0.84870
O      0.64679     1.41735    -0.82149
H     -0.19411     1.81071    -0.50435
O      1.65931     2.12829    -0.11359
H      1.53350     1.79481     0.79830
O     -4.52062     0.84440    -1.16555
H     -5.38048     0.97177    -1.57677
O     -4.34021     2.08959    -0.48287
H     -3.66462     1.80757     0.15649
O     -1.89048    -2.33406    -0.91029
H     -2.01614    -1.60409    -1.55555
O     -1.09160    -3.26382    -1.63987
H     -0.27452    -2.74380    -1.73218
O      1.66938    -1.19847     2.81446
H      0.96091    -1.69929     2.36575
O      2.83423    -1.78341     2.24226
H      3.25033    -2.19680     3.00269
O      3.93983     0.28553    -0.20861
H      3.27008     0.92665    -0.48739
O      3.21509    -0.93640    -0.29752
H      3.15779    -1.21933     0.63332
