 32
-1213.3010500793496
O      3.39607    -1.27607     2.66093
H      3.80392    -1.34270     3.52821
O      2.02283    -1.54874     2.99556
H      1.63056    -1.55694     2.10553
O      0.30507    -1.31102    -2.64908
H      0.38390    -1.58550    -3.56926
O     -0.90829    -1.91997    -2.22651
H     -1.53185    -1.17605    -2.29917
O     -3.03227    -0.71257     0.41102
H     -2.10525    -0.95421     0.61100
O     -3.42861    -1.81478    -0.40276
H     -4.01014    -2.29203     0.19639
O      1.52735     0.85976    -1.69699
H      1.04526     0.05035    -1.94778
O      0.54163     1.87007    -1.90280
H      0.34519     2.10933    -0.98530
O      2.02765     1.43430     0.94287
H      2.35521     1.21509     0.05836
O      3.20709     1.41064     1.75433
H      3.19985     0.48643     2.04693
O     -1.91156     0.77386    -2.35919
H     -1.04474     1.21824    -2.29874
O     -2.67270     1.48217    -1.37450
H     -3.14733     0.74909    -0.95991
O     -0.75831     1.41668     0.65471
H     -1.59628     1.74974     0.30213
O     -0.68781     2.02274     1.95185
H      0.26374     2.19140     1.96936
O      0.80918    -1.15838     0.61344
H      0.62308    -0.21064     0.76083
O     -0.50719    -1.70365     0.60903
H     -0.52887    -2.13377    -0.25960
