 16
-606.6345014812663
O     -1.76118     0.25576     0.75129
H     -1.35641    -0.39521     1.34207
O     -0.88126     1.37016     0.96249
H     -0.41522     1.41468     0.10721
O      0.51935    -0.54068     2.44530
H      0.47681     0.39989     2.22127
O      1.90189    -0.82886     2.20985
H      2.22920    -0.94880     3.10765
O     -0.17284     1.77994    -2.51009
H      0.51108     2.33975    -2.88956
O      0.52312     1.22773    -1.39279
H      0.47384     0.27191    -1.58701
O     -1.10376    -1.80348    -1.22869
H     -1.49971    -0.97682    -0.90843
O      0.28868    -1.46866    -1.24755
H      0.60538    -1.78704    -0.39382
