 36
-1364.9733648303486
O      2.09286     0.98540     1.10059
H      2.53153     0.44759     0.41842
O      1.57557    -0.05232     1.94538
H      1.14851     0.46188     2.66120
O     -1.99381     0.98431    -2.28914
H     -2.04795     0.08564    -1.93372
O     -1.06797     0.78791    -3.36269
H     -0.51683     1.58077    -3.26153
O     -0.50008    -0.10620     4.14554
H     -0.98873    -0.25657     3.31370
O      0.10675     1.15336     3.82399
H      0.26269     1.51591     4.70107
O      1.79686    -0.34257    -2.13170
H      2.00720     0.59496    -2.28194
O      2.65601    -0.68797    -1.03815
H      2.07394    -1.35764    -0.63194
O     -2.63920    -0.85015     1.10746
H     -2.41609    -1.76351     0.87706
O     -1.39457    -0.39586     1.62461
H     -1.28711     0.44355     1.13161
O      0.16300     2.44823    -0.10347
H      0.81507     1.88536     0.36923
O     -1.08803     1.79883     0.13165
H     -1.43696     1.68262    -0.77844
O     -0.43996    -1.05182    -0.94282
H      0.18151    -0.69771    -1.61060
O      0.46736    -1.76761    -0.08954
H      0.36635    -1.27312     0.74595
O      0.65311     2.75651    -2.65241
H      0.46727     2.81124    -1.68724
O      1.99773     2.28879    -2.61202
H      2.41002     2.82594    -3.29488
O     -1.57089    -3.53419     0.18416
H     -0.72613    -3.09986    -0.03583
O     -1.16700    -4.47339     1.18357
H     -1.41454    -5.30084     0.76282
