 32
-1213.3088483910576
O      1.60721     0.23867     2.32510
H      2.23354     0.28720     1.57568
O      0.80495     1.39760     2.09785
H     -0.07734     1.01201     1.91752
O      0.63485    -0.45315    -0.89190
H     -0.04176    -0.89713    -1.45921
O      1.50410     0.15325    -1.84272
H      1.24891     1.08125    -1.72501
O     -2.82737     1.03983    -1.47061
H     -3.58631     1.61571    -1.62603
O     -3.43025    -0.25422    -1.51954
H     -3.28609    -0.55035    -0.60635
O      1.00327     2.51356    -0.34518
H      1.04751     2.18470     0.57988
O     -0.39748     2.72842    -0.50838
H     -0.46739     3.68412    -0.40949
O      3.95256     1.49515    -0.00769
H      4.85876     1.21751     0.14849
O      3.27840     0.25794     0.19409
H      2.81975     0.12673    -0.65855
O     -1.66774    -2.91406    -1.16920
H     -0.92127    -2.95789    -0.55447
O     -1.20109    -1.95327    -2.12237
H     -2.02154    -1.47376    -2.31777
O      0.53974    -2.42069     0.90477
H      0.67213    -1.61291     0.37495
O      0.05455    -1.91572     2.14139
H      0.69591    -1.20779     2.36795
O     -1.53524     0.60545     1.18021
H     -1.45862     0.92884     0.26707
O     -2.04815    -0.71585     0.99865
H     -1.36782    -1.25696     1.45945
