 40
-1516.6415061838425
O     -2.48817     3.35640     1.38326
H     -2.94147     4.18666     1.55415
O     -1.12674     3.75147     1.49867
H     -0.81938     3.70607     0.56484
O      1.84626    -1.96918    -0.55356
H      1.50295    -1.80711     0.34959
O      1.13278    -3.13749    -0.97335
H      0.40467    -2.76505    -1.51233
O      0.58458     0.13580    -2.89270
H      0.19936     0.99146    -2.64451
O      1.82109     0.15833    -2.18402
H      1.79246    -0.68014    -1.67291
O     -1.63528     0.72454    -0.15203
H     -1.51912     0.96315     0.78309
O     -0.60140    -0.25740    -0.26309
H     -1.01463    -0.91226    -0.84440
O     -0.13003     3.58908    -0.98471
H      0.78834     3.25650    -0.95291
O     -0.73787     2.62218    -1.84585
H     -1.16808     2.01772    -1.20663
O      2.24341     2.32399    -0.75269
H      2.16450     1.52950    -1.34118
O      2.30908     1.69499     0.52142
H      3.21318     1.86913     0.79805
O      0.32478     2.03181     3.03403
H     -0.26095     2.75227     2.75131
O      0.13045     1.17412     1.92283
H      0.89055     1.37821     1.33414
O     -0.23354    -3.98660     1.15399
H      0.32756    -3.86053     0.36619
O     -1.34265    -3.15048     0.78392
H     -1.14895    -2.35401     1.32737
O     -0.29311    -1.33353     2.36831
H     -0.18922    -0.35286     2.28163
O      1.05275    -1.75201     2.07305
H      0.95126    -2.69821     2.24881
O     -1.11974    -2.46634    -2.19687
H     -1.31953    -2.39643    -3.13555
O     -1.64566    -3.74877    -1.85218
H     -1.68674    -3.64116    -0.88195
