 16
-606.63643482519
O     -0.46725     0.17696    -1.14540
H     -0.91953     1.03456    -1.22024
O      0.84882     0.62974    -0.78281
H      0.92194     0.25049     0.11189
O      1.09290    -0.82629     1.51300
H      0.68183    -1.66455     1.21752
O      0.24095    -0.46527     2.59678
H      0.85818    -0.50338     3.33356
O     -1.25588     2.78958    -1.23082
H     -1.53419     3.13928    -0.37679
O      0.01109     3.43875    -1.41956
H      0.61510     2.69800    -1.25319
O     -0.96853    -2.67146    -0.50631
H     -0.71858    -1.76548    -0.74370
O      0.10493    -3.03685     0.36202
H      0.61844    -3.64480    -0.18002
