 20
-758.3023262027913
O      0.41037    -1.55772     1.51309
H     -0.13352    -1.00606     2.09741
O     -0.61143    -2.21204     0.74470
H     -0.39506    -1.89772    -0.15450
O      2.52238     0.14051    -0.63756
H      3.28543     0.59422    -0.26777
O      1.51494     0.51856     0.29564
H      1.24701    -0.35539     0.67190
O     -0.38591     2.08022     2.19174
H      0.52553     1.85603     1.97036
O     -1.02138     0.81169     2.00925
H     -1.33025     0.87606     1.08723
O     -0.91120    -1.13636    -2.61656
H     -0.89890    -0.17128    -2.55283
O      0.13772    -1.44839    -1.69552
H      0.81710    -1.84996    -2.24922
O     -0.44550     1.44250    -1.35823
H      0.23482     1.12051    -0.73486
O     -1.63848     1.35308    -0.56905
H     -1.90570     2.27524    -0.50999
