 28
-1061.6400946839778
O      0.54904    -0.53704    -1.55951
H      0.58834    -1.26526    -0.88885
O      1.72122     0.22358    -1.24416
H      1.82467     0.72758    -2.06411
O     -2.15381    -0.86386     0.55132
H     -2.26904    -0.13982    -0.09338
O     -1.65424    -0.17638     1.69927
H     -0.84983     0.28663     1.36785
O      0.66503    -1.43822     3.48789
H      0.50668    -1.50243     4.43557
O     -0.40543    -2.20238     2.94194
H     -1.36635    -2.25593    -0.09203
O      1.54358     0.77826     2.15509
H      1.18605    -0.03362     2.54424
O      0.62339     0.99378     1.08409
H      1.15750     0.76496     0.29469
O     -1.00311     1.53565    -1.41281
H     -0.53974     0.67122    -1.46691
O     -2.34628     1.06877    -1.26981
H     -2.80931     1.89332    -1.09630
O      0.45454    -2.41507     0.27214
H      0.28223    -2.55777     1.22162
O     -0.71913    -2.93674    -0.35261
H     -1.01444    -1.49096     2.64563
O      1.20948     2.22175    -3.18101
H      0.39871     2.41107    -2.68650
O      1.88890     3.47563    -3.10901
H      1.87651     3.74640    -4.03172
