 40
-1516.6469586407343
O      1.56054     0.62007    -0.97093
H      2.04640     0.93008    -0.18955
O      2.15803    -0.65831    -1.20680
H      1.56227    -0.96449    -1.92032
O     -0.88122     0.25096     2.52282
H     -1.47337     0.84989     2.01641
O      0.16073     0.05977     1.56157
H     -0.23709    -0.62628     0.96207
O     -1.15102     1.06259    -2.60423
H     -1.17145     2.03718    -2.55229
O     -1.04790     0.76038    -1.21594
H     -0.06747     0.76344    -1.09154
O     -1.05384    -2.38884     3.20645
H     -1.03506    -1.41237     3.18391
O      0.01462    -2.66801     4.10741
H     -0.45058    -3.16019     4.78877
O     -1.67110     3.17956     0.80593
H     -0.83199     3.07083     1.30269
O     -2.20121     1.85563     0.85502
H     -1.84863     1.46871     0.02432
O      0.75388     2.60803     1.75273
H      0.69618     1.62800     1.76962
O      1.73790     2.83994     0.74930
H      1.20249     3.22916     0.04610
O     -1.19176     3.66936    -1.77890
H     -1.49454     3.57528    -0.84791
O      0.13905     4.13243    -1.58969
H      0.05766     5.06948    -1.79002
O     -0.99953    -1.87738     0.18820
H     -0.95099    -2.03809    -0.77796
O     -0.36368    -3.06405     0.70171
H     -0.60794    -2.96409     1.64689
O      1.53944    -3.63202    -1.16891
H      1.08025    -3.48376    -0.31992
O      2.91013    -3.64216    -0.78535
H      3.15096    -2.71812    -0.92383
O      0.25084    -1.24596    -2.94891
H     -0.42472    -0.54601    -2.99000
O     -0.48101    -2.36040    -2.42738
H      0.26108    -2.96480    -2.24081
