 24
-909.977231007705
O     -1.72124    -1.01111     1.09598
H     -1.10357    -0.92487     1.84170
O     -1.93383     0.36827     0.74993
H     -2.03644     0.26495    -0.21423
O      0.35518     0.99964    -2.20176
H      0.48250     1.48075    -1.35884
O     -0.50937     1.89748    -2.89284
H     -0.17919     1.78598    -3.78737
O      2.30912    -0.75427    -0.44148
H      2.23428     0.17316    -0.17034
O      1.10598    -1.28539     0.11248
H      0.51483    -1.39623    -0.65299
O     -1.19785    -1.82041    -1.48260
H     -1.60677    -1.98118    -0.62262
O     -1.77595    -0.53609    -1.75947
H     -1.01614    -0.04834    -2.13298
O      1.33708    -0.49021     2.60748
H      1.26497    -0.92707     1.72874
O      0.04000    -0.76146     3.13608
H      0.22804    -1.43352     3.79882
O      1.68654     1.85035     0.89701
H      1.46702     1.35056     1.69664
O      0.42101     2.07235     0.26967
H     -0.21648     1.51512     0.74832
