 28
-1061.643397858059
O      1.30998     0.79012    -1.74461
H      1.07038     0.82060    -0.79494
O      0.22629     0.03106    -2.29109
H      0.31422    -0.81490    -1.80641
O      1.15371     1.54845     1.75292
H      0.32136     1.92915     2.06734
O      0.63044     0.58963     0.82662
H      0.88502    -0.26922     1.20427
O     -2.49715     0.47012    -0.69836
H     -3.06703     0.94320    -0.07554
O     -1.59507     1.53585    -1.04557
H      1.86097    -2.05895    -0.98357
O     -2.64843     1.61101     1.81991
H     -2.16902     0.81928     2.10614
O     -1.60650     2.57580     1.68356
H     -1.44347     2.53892     0.72852
O     -1.77343    -0.94669     2.21879
H     -2.46496    -1.47235     2.63281
O     -1.72948    -1.52525     0.92014
H     -1.91862    -0.76442     0.32885
O      0.84048    -2.27486     0.56998
H     -0.11956    -2.25804     0.70916
O      0.89006    -2.09241    -0.84366
H     -0.96983     1.07879    -1.64613
O      3.78865    -0.45298    -1.42656
H      2.95412    -0.03004    -1.69947
O      3.43904    -1.83562    -1.49967
H      3.92207    -2.13646    -2.27587
