 36
-1364.984720915288
O      2.62183    -0.36966     0.22283
H      2.31285    -1.22874     0.56692
O      3.28457    -0.76940    -0.97371
H      3.09635    -0.01758    -1.55179
O     -1.26985    -2.05099     1.84450
H     -0.58539    -2.66999     1.52590
O     -2.27499    -2.22980     0.83787
H     -2.77912    -1.39883     0.94726
O     -1.21428     1.24209     2.41322
H     -0.93012     2.11820     2.06530
O     -0.21304     0.40554     1.80341
H     -0.62620    -0.48657     1.89311
O      1.87515     1.04865    -2.74800
H      1.31148     1.29271    -1.97951
O      1.07678     0.04321    -3.37470
H      0.69701     0.50440    -4.12878
O      0.15412    -1.78039    -1.60777
H      0.53013    -1.12310    -2.22886
O     -1.19856    -1.33515    -1.48743
H     -1.55801    -1.95255    -0.82370
O      0.56279     1.46326    -0.50079
H      0.24763     0.96651     0.29663
O      1.73680     2.07726     0.02255
H      2.24819     1.25676     0.20348
O     -1.37229     3.84987     0.24782
H     -1.78521     3.00578     0.02349
O     -0.39597     3.46186     1.21596
H      0.38861     3.27178     0.67379
O     -3.13598     0.32787     0.82705
H     -2.58941     0.73930     1.53147
O     -2.60616     0.97929    -0.33471
H     -2.02097     0.29847    -0.70117
O      0.69647    -3.30036     0.48041
H      0.63558    -2.77739    -0.34876
O      1.91911    -2.82377     1.02834
H      2.50316    -3.57982     0.91651
