 32
-1213.3053619482173
O      2.58538    -0.02019     0.01177
H      1.89560    -0.66579     0.27977
O      3.22966     0.19360     1.27006
H      4.07727     0.54085     0.98076
O      0.05123    -2.65969     0.29397
H      0.67334    -3.39077     0.32328
O      0.76825    -1.66958     1.02402
H      0.03878    -1.12773     1.39432
O     -0.52552    -0.52054    -1.45086
H     -0.24909    -1.44852    -1.35494
O      0.46414     0.01234    -2.33196
H      0.46875     0.92694    -1.98900
O      1.75215     2.99470     2.28564
H      1.66900     2.87122     1.32068
O      1.54485     1.67863     2.79360
H      2.22989     1.15594     2.34480
O     -2.19850    -1.88494    -3.23283
H     -1.42348    -1.31854    -3.33959
O     -1.73667    -2.78678    -2.21430
H     -2.35104    -2.58351    -1.49386
O      0.29748     2.16675    -0.78646
H     -0.12970     1.86279     0.03921
O      1.63388     2.43701    -0.37351
H      2.02390     1.54215    -0.40344
O     -0.72168     1.37415     1.53095
H     -0.00184     1.56456     2.17981
O     -1.09838     0.04297     1.90094
H     -2.00136     0.01307     1.54874
O     -2.92271    -0.07273    -0.31100
H     -2.10020    -0.22038    -0.82151
O     -3.61603    -1.30845    -0.47912
H     -4.20678    -1.10783    -1.21077
