 32
-1213.311597422444
O      1.14817     1.31354    -0.30892
H      0.31992     1.37914    -0.82578
O      1.31927     2.61854     0.22833
H      1.45864     2.41769     1.16102
O     -0.44941    -2.46478    -1.68489
H      0.29380    -1.85940    -1.89731
O     -0.45226    -2.45724    -0.25735
H     -0.95439    -1.64111    -0.04416
O     -1.87950    -0.68893    -3.75703
H     -2.03417    -1.45058    -4.32450
O     -2.52399    -1.05268    -2.53481
H     -1.85877    -1.66729    -2.14988
O      2.32588     0.66856     3.34023
H      1.98933     0.00711     2.69528
O      1.11936     1.03914     4.01557
H      1.18797     0.55751     4.84655
O      0.32173     0.45796    -2.78871
H     -0.39797    -0.04147    -3.22179
O      1.26312    -0.58583    -2.48457
H      1.79027    -0.13127    -1.81153
O      1.93320    -1.61988     0.59090
H      1.21372    -2.22109     0.32149
O      1.15974    -0.69386     1.36230
H      1.12487     0.05119     0.72716
O     -1.02267     1.10700     2.40199
H     -0.23785     1.07305     2.98774
O     -1.16580     2.51054     2.18092
H     -1.36260     2.51487     1.23459
O     -1.77610    -0.23919     0.26380
H     -1.57037     0.17066     1.13380
O     -1.75021     0.91393    -0.58805
H     -2.24498     0.57059    -1.34879
