 40
-1516.6480548723532
O      2.59467    -0.08393    -1.88858
H      1.87647     0.55694    -2.07752
O      2.28899    -1.15623    -2.79091
H      1.41512    -1.42143    -2.43461
O     -1.09041    -0.79388     0.80363
H     -1.11421     0.14219     1.10604
O     -2.44489    -1.19499     0.95999
H     -2.84398    -0.68993     0.23037
O     -0.87021     1.75471     1.50750
H     -0.04246     2.06946     1.90505
O     -1.89636     2.35259     2.29628
H     -2.23213     2.99793     1.66222
O      1.43042     0.53319     0.59880
H      2.15768    -0.03793     0.28414
O      1.68443     0.72297     1.97980
H      1.21083    -0.03361     2.35398
O     -2.19420     2.99984    -0.96048
H     -1.20864     2.94325    -0.95588
O     -2.43103     4.17606    -0.19270
H     -3.00400     4.66423    -0.79006
O      0.34283     2.29460    -1.03656
H      0.76672     1.72134    -0.36070
O      0.42470     1.45322    -2.18875
H     -0.45435     1.02285    -2.21214
O     -2.84696     0.37680    -1.14525
H     -2.68496     1.32540    -0.99591
O     -1.90534     0.10045    -2.18743
H     -1.62970    -0.80294    -1.97149
O      2.80854    -1.83928     0.87855
H      2.12615    -2.26309     1.42340
O      2.79256    -2.65888    -0.29467
H      3.03398    -2.01670    -0.98090
O      0.26826    -3.04610    -1.11292
H      1.19996    -3.11275    -0.82597
O      0.18767    -1.64210    -1.31277
H     -0.12836    -1.32884    -0.42578
O      0.95256    -2.82901     2.63679
H      1.12205    -3.31037     3.45167
O      0.18382    -1.71713     3.10609
H     -0.61384    -1.80707     2.55927
