 12
-454.9717582691988
O     -0.47252    -1.84562    -0.31092
H     -0.98650    -2.29699    -0.98689
O      0.67923    -1.44600    -1.07463
H      1.09927    -0.83787    -0.44012
O      1.97127     0.29447     0.54515
H      2.88946     0.49928     0.34683
O      1.35087     1.55921     0.25537
H      0.42797     1.32068     0.45224
O     -1.15494     0.54789     0.73454
H     -1.06844    -0.35209     0.36559
O     -2.16558     1.09425    -0.11531
H     -2.80491     1.39157     0.53876
