 36
-1364.9769217950957
O      0.13557     1.95333     2.10001
H     -0.34975     1.17325     2.44437
O      1.47816     1.45890     2.05965
H      1.50624     1.10097     1.15364
O      0.13439    -2.27949    -0.46704
H      0.32912    -1.39365    -0.82784
O     -1.28851    -2.21713    -0.35182
H     -1.41591    -1.76321     0.51075
O     -1.86865    -0.84523     1.88956
H     -2.29303     0.02071     1.69732
O     -0.81327    -0.44312     2.76809
H     -0.13286    -1.11882     2.56681
O      2.49584    -1.74513    -2.34030
H      2.83099    -2.47074    -2.87697
O      2.07173    -0.81567    -3.34564
H      2.41444    -0.00238    -2.95353
O     -2.74207     1.54416     1.09201
H     -2.22537     1.90673     0.33300
O     -3.79201     0.85403     0.41395
H     -4.52912     1.07622     0.98643
O      0.11490     2.79230    -0.41162
H      0.03615     2.63824     0.55733
O     -1.11636     2.24840    -0.89049
H     -0.81640     1.47714    -1.41844
O      1.62442     0.25776    -0.31362
H      2.38379    -0.33044    -0.17104
O      2.10327     1.22465    -1.24851
H      1.45281     1.93746    -1.05403
O     -1.74177    -0.64077    -2.52403
H     -1.76415    -1.29019    -1.79495
O     -0.48882     0.00393    -2.23139
H      0.10747    -0.34336    -2.91305
O      2.40571    -1.34221     1.82976
H      2.19258    -0.52164     2.30037
O      1.17214    -2.04935     1.95485
H      0.92416    -2.23841     1.02100
