 20
-758.3157440337087
O     -0.57073    -1.98340     0.09037
H     -0.95835    -1.16171     0.44844
O      0.80894    -1.80380     0.43617
H      1.09005    -1.22381    -0.29869
O      0.74984     0.95689     2.67645
H      0.96674     0.92657     3.61466
O      1.86848     0.32083     2.07172
H      1.48659    -0.53798     1.82159
O      1.22945     1.31325    -0.57527
H      1.76035     1.05087     0.19038
O      1.24551     0.11314    -1.35904
H      0.39810     0.20576    -1.85109
O     -1.17633     0.26036    -2.40039
H     -1.78238     0.65787    -1.75370
O     -1.66723    -1.06697    -2.56722
H     -1.21216    -1.55033    -1.86030
O     -1.33334     1.50766     0.19200
H     -0.39797     1.54808    -0.08201
O     -1.32069     0.38384     1.07849
H     -0.65403     0.65457     1.73547
