 36
-1364.9726450585588
O      1.98984     0.52426     2.76615
H      2.48081     0.58498     1.93608
O      0.85277    -0.21565     2.34828
H      1.23892    -0.96293     1.82805
O     -1.14311     1.39260     0.59799
H     -1.38651     1.21589     1.53072
O     -2.36541     1.02812    -0.04950
H     -2.09551     0.84397    -0.96999
O      0.80096    -2.12911    -0.30222
H      0.02064    -2.13125     0.28552
O      1.84982    -1.95160     0.65238
H      2.54525    -1.57006     0.09673
O      1.24418     0.78067    -0.44183
H      0.37546     0.97841    -0.01966
O      0.85994     0.31262    -1.74454
H      0.49323    -0.56790    -1.54180
O     -1.42385    -1.36646    -2.25589
H     -1.90854    -1.73275    -1.50044
O     -2.11134    -0.12275    -2.43233
H     -1.66949     0.23938    -3.22504
O     -2.05652     0.82587     3.03396
H     -2.24201     1.36414     3.80847
O     -1.44741    -0.33637     3.59309
H     -0.52300    -0.19574     3.29455
O     -0.81377     1.30424    -4.25654
H     -1.17258     1.94301    -4.87846
O     -0.45310     2.14811    -3.15984
H      0.14311     1.54007    -2.68077
O      3.94237     1.02556    -0.60958
H      2.97197     1.09052    -0.69578
O      4.00846     0.02733     0.41940
H      4.86256     0.21147     0.82174
O     -1.36655    -1.94392     1.25529
H     -1.60411    -1.66391     2.15621
O     -2.53720    -1.62589     0.49290
H     -2.50512    -0.64773     0.43808
