 32
-1213.3006079852707
O      2.01417     0.72581     2.58930
H      1.38015     0.07696     2.92496
O      1.87926     0.48638     1.18150
H      2.78713     0.29731     0.89785
O      0.80847    -2.33711    -1.58205
H     -0.14872    -2.33463    -1.43779
O      1.16969    -1.09163    -0.99917
H      0.71177    -0.46448    -1.60161
O     -0.30883     0.52606    -2.42661
H     -1.26777     0.55375    -2.53230
O      0.11689     1.87022    -2.68967
H      0.27315     2.17974    -1.77508
O     -0.75851     1.27857     0.46573
H     -0.83954     0.65691    -0.27583
O      0.23654     2.18552    -0.01088
H      1.03512     1.76229     0.36620
O      3.58980     0.07927    -1.10304
H      2.84717    -0.55692    -1.14787
O      2.92510     1.29782    -1.46154
H      3.12133     1.38443    -2.40025
O     -2.21416    -0.87342    -0.70384
H     -2.84769    -0.57738    -0.02255
O     -2.02547    -2.25367    -0.35194
H     -1.35829    -2.18227     0.36421
O     -0.50483    -1.18724     2.58774
H     -1.32220    -0.77672     2.26833
O     -0.05629    -1.87407     1.42277
H      0.59904    -1.25855     1.04649
O     -3.20325    -0.04566     1.59031
H     -3.95075    -0.14178     2.18803
O     -3.33182     1.30459     1.13718
H     -2.39041     1.51577     0.99581
