 32
-1213.3111408491409
O     -0.40022    -1.60280     0.68642
H     -1.28959    -1.56705     0.26521
O     -0.59792    -2.44096     1.82096
H     -0.90639    -1.76533     2.44497
O      0.70265    -2.57901    -2.07713
H      0.55809    -3.53028    -2.10543
O      1.53211    -2.42219    -0.92694
H      0.87346    -2.14332    -0.25086
O     -2.47664     0.22513    -0.34920
H     -2.61561     0.26115     0.61600
O     -2.71959    -1.16090    -0.62396
H     -2.39809    -1.17211    -1.54133
O     -1.03867    -0.64727    -2.61628
H     -0.28818    -1.24515    -2.44514
O     -0.51586     0.61881    -2.20457
H     -1.18411     0.86851    -1.54355
O      3.08687     2.77075     1.19339
H      3.91350     3.23728     1.04219
O      2.43516     2.96126    -0.06479
H      2.36241     2.03314    -0.37414
O      1.73951     0.51126    -0.80452
H      0.95903     0.57594    -1.40364
O      2.73737    -0.04485    -1.65721
H      2.67343    -0.96881    -1.37895
O     -0.32124     2.33711     0.56480
H      0.45597     2.90822     0.45081
O      0.15274     1.40176     1.52959
H      0.75469     0.84335     1.00268
O     -2.81023     0.16065     2.31274
H     -3.24270     0.69733     2.98438
O     -1.53967    -0.10030     2.89745
H     -0.96312     0.51372     2.38787
