 20
-758.300120730301
O     -2.56761    -1.15551     2.00712
H     -2.95185    -1.70951     2.69238
O     -1.17301    -1.44290     2.17899
H     -0.78637    -0.71626     1.64864
O      0.03487     0.38906     0.65062
H      1.00041     0.41812     0.82614
O      0.02714    -0.29095    -0.60558
H     -0.93850    -0.35443    -0.78078
O      2.62738     0.39977     1.25531
H      3.04532    -0.37783     1.63663
O      3.42102     0.57948     0.07219
H      2.84381     1.19476    -0.42068
O      1.93015     2.28535    -1.35999
H      2.33790     2.90729    -1.96951
O      1.21677     1.44040    -2.27390
H      0.81093     0.81991    -1.63739
O     -2.94107    -1.65278    -0.62094
H     -2.80376    -1.42435     0.31782
O     -2.55304    -0.41130    -1.22302
H     -2.90643    -0.51609    -2.11128
