 32
-1213.3082504431973
O      0.83775    -0.37353     1.07157
H      1.65710    -0.87041     0.90214
O      1.13442     0.41988     2.22144
H      1.06781     1.29978     1.81725
O      0.85078    -2.44342    -1.20255
H      0.47808    -2.85679    -0.39473
O      2.15941    -2.06142    -0.76402
H      2.23842    -1.18159    -1.18660
O     -0.75151    -0.53890    -2.12697
H     -0.15858    -1.24249    -1.77644
O     -2.00770    -1.21357    -2.12016
H     -2.40662    -0.82210    -1.33000
O     -2.29553     0.79473    -0.06065
H     -2.09978     1.03297     0.86464
O     -1.35509     1.63737    -0.74975
H     -0.97172     0.97772    -1.36922
O      2.29094     0.48073    -1.51215
H      1.97624     1.27053    -1.02874
O      1.91429     0.76119    -2.85424
H      1.17171     0.15055    -2.96354
O     -1.42907     0.51215     3.28022
H     -0.46709     0.44176     3.16477
O     -1.69320     1.61021     2.40844
H     -2.09440     2.26003     2.99262
O     -0.45901    -3.18342     1.01178
H     -1.13620    -3.86295     1.07969
O     -1.26111    -2.00084     0.90556
H     -0.56362    -1.32820     1.03752
O      1.52374     2.73223    -0.31877
H      1.38439     3.58820    -0.73634
O      0.54686     2.69276     0.71551
H     -0.24872     2.35531     0.22983
