 32
-1213.312528024968
O      2.16501    -2.19999    -1.58719
H      2.34390    -2.66890    -0.76157
O      1.18880    -1.26489    -1.13277
H      0.38791    -1.50875    -1.62730
O     -0.92257    -0.76005     1.77328
H     -1.33741     0.01280     1.33064
O     -1.02417    -1.79508     0.79319
H     -0.23561    -2.32878     1.00535
O     -2.58015    -0.83037    -1.13733
H     -2.15770    -1.32242    -0.40710
O     -1.54861    -0.93369    -2.12356
H     -1.16096    -0.04049    -2.09563
O     -0.25810     1.40820    -1.77511
H     -0.97506     2.00682    -1.50062
O      0.49875     2.17966    -2.70741
H      1.14458     2.58305    -2.11367
O     -0.21440     3.43708     0.96661
H      0.12848     3.94114     1.71057
O      0.95893     3.12465     0.22349
H      1.09124     2.17913     0.45768
O      1.44543     0.57684     0.72672
H      1.31005    -0.09869     0.02556
O      1.63758    -0.19078     1.90874
H      0.70262    -0.40143     2.10671
O      1.10116    -3.22954     1.59703
H      1.22664    -3.60845     2.47278
O      2.39412    -2.71252     1.28705
H      2.27170    -1.76439     1.51004
O     -2.73953     1.73217    -0.36788
H     -2.88456     0.82009    -0.69365
O     -1.98068     1.45319     0.80849
H     -1.38976     2.23504     0.86068
