 16
-606.6314792923329
O     -3.01651    -0.82621     0.81090
H     -2.72086    -1.07609    -0.07752
O     -2.39631     0.46762     0.91414
H     -1.87767     0.36634     1.71713
O      3.31468     0.37235     0.97738
H      2.79159     0.75842     0.26192
O      2.25214    -0.06891     1.83736
H      2.47074     0.37223     2.66540
O      1.35898     0.52333    -1.15259
H      0.46711     0.87280    -1.33994
O      1.03526    -0.87353    -1.01253
H      1.13146    -1.00157    -0.05883
O     -1.27678     0.75717    -1.47859
H     -1.66763     0.85587    -0.59140
O     -1.51210    -0.65007    -1.66246
H     -0.60570    -0.97556    -1.51069
