 32
-1213.3119167371117
O      0.87816    -2.94728     1.75179
H      0.10558    -2.46676     2.10961
O      1.56363    -1.85739     1.13360
H      2.48664    -2.11015     1.24314
O      2.36529    -0.21770    -1.34159
H      2.64268     0.70693    -1.31677
O      0.99820    -0.04509    -1.72220
H      0.83338    -0.88136    -2.17749
O     -2.65183     0.29909    -0.36866
H     -2.65267    -0.44157     0.27189
O     -1.93432    -0.27499    -1.46288
H     -1.05945     0.14039    -1.37071
O     -1.59985     2.88075    -1.10863
H     -2.17640     2.22923    -0.69092
O     -0.65720     3.07869    -0.05541
H      0.17139     3.25172    -0.53452
O      1.97222     3.49645    -0.69289
H      2.34335     4.25456    -0.23443
O      2.70737     2.42106    -0.12222
H      2.02331     1.96395     0.41041
O     -1.12949    -2.76918    -0.99664
H     -1.50798    -1.94811    -1.36613
O      0.21754    -2.69302    -1.47104
H      0.72034    -2.67705    -0.64524
O     -2.34036    -1.77559     1.35897
H     -1.90601    -2.40174     0.75769
O     -1.27023    -1.41400     2.22725
H     -1.02755    -0.52014     1.90402
O      1.09845     0.75868     1.14737
H      1.19144    -0.20956     1.04544
O     -0.30864     0.90166     1.37825
H     -0.49696     1.73533     0.88056
