 40
-1516.6488584325468
O      3.00675    -0.39081    -0.06703
H      2.43177    -0.89581    -0.66964
O      2.40217    -0.66345     1.19555
H      1.70299     0.02618     1.26147
O     -0.33782     0.70856     2.63698
H     -0.78619    -0.10913     2.34355
O      0.36459     1.04043     1.43632
H      0.32309     2.01962     1.43038
O     -0.27961     3.70630     1.29023
H     -0.18922     4.34995     2.00109
O     -1.68908     3.69497     1.07356
H     -1.72508     3.94788     0.13974
O      1.07309     1.59276    -1.72913
H      0.50195     2.38140    -1.84872
O      2.05572     2.05591    -0.79845
H      2.52829     1.22349    -0.60136
O     -1.78410     0.78597    -1.62609
H     -1.28483    -0.03888    -1.82048
O     -2.05753     0.59961    -0.23923
H     -1.28760     1.01801     0.18190
O     -0.28915    -1.39899    -1.93936
H     -0.23621    -2.35372    -1.70827
O      1.08257    -1.02336    -1.85122
H      0.99868    -0.04732    -1.92927
O     -1.35704    -1.68070     1.94364
H     -0.56261    -2.24882     2.00620
O     -1.79736    -1.92466     0.60396
H     -1.96532    -1.01008     0.28298
O      1.82479    -3.24711     1.15340
H      2.13080    -2.32024     1.27526
O      0.79341    -3.34256     2.14870
H      0.32753    -4.11399     1.79461
O      0.27706    -3.81034    -0.92029
H      1.03860    -3.62768    -0.33673
O     -0.67060    -4.27749     0.04716
H     -1.21789    -3.47746     0.15286
O     -0.52362     3.69402    -2.19694
H     -0.66771     4.10878    -3.05314
O     -1.85469     3.45834    -1.74003
H     -1.87312     2.47655    -1.74215
