 32
-1213.3084659778417
O      0.67168    -2.46282     1.13455
H      0.27138    -1.69139     1.60399
O     -0.11397    -3.54418     1.61992
H      0.57205    -4.10242     1.99101
O      0.37262    -0.74081    -1.69359
H      0.75600    -0.01625    -2.23508
O      1.55100    -1.36927    -1.17440
H      1.19102    -1.87400    -0.41745
O     -1.99171    -2.81837    -0.80992
H     -1.56930    -3.27623    -0.07465
O     -1.86070    -1.46354    -0.38717
H     -1.09358    -1.17127    -0.92164
O     -0.34538    -0.20384     2.11620
H     -0.07132     0.59512     1.60868
O     -1.77087    -0.21424     1.96608
H     -1.86892    -0.70898     1.12201
O      1.26165     2.52555    -2.51594
H      0.64586     2.27781    -1.80257
O      1.53165     1.23212    -3.07133
H      2.48139     1.28154    -3.21458
O      3.37299     0.37020     0.90226
H      4.22347     0.81751     0.87146
O      2.80004     0.81018    -0.33195
H      2.49435    -0.04568    -0.71514
O     -0.32094     1.88841    -0.44028
H     -1.16610     2.12600    -0.00096
O      0.54673     1.88156     0.70950
H      1.40313     1.61982     0.30985
O     -2.43124     2.25067     1.19594
H     -2.34732     1.40030     1.67970
O     -3.58633     2.00987     0.39705
H     -4.17827     2.69310     0.72371
