 28
-1061.6422101574324
O     -1.82522     1.11101     2.95569
H     -1.19961     0.48346     3.34471
O     -1.91350     0.55834     1.63346
H     -1.66996     1.34154     1.10913
O      0.40477    -0.52203     2.74617
H      0.94753     0.13407     2.27708
O     -0.06872    -1.31527     1.65409
H     -0.86496    -0.79593     1.40282
O      1.71535    -1.54185    -0.29438
H      1.12322    -1.50555     0.49314
O      1.46787    -0.26691    -0.90669
H      0.75862    -4.03899    -3.51402
O     -1.00146     2.67624     0.27243
H     -0.03967     2.69349     0.43444
O     -1.05919     2.65043    -1.14986
H     -1.73391     3.31569    -1.30979
O     -1.16851    -0.23244    -1.14059
H     -1.43706     0.69154    -1.26924
O     -1.48330    -0.80417    -2.42641
H     -0.94328    -1.61473    -2.37743
O      0.22231    -2.92429    -2.12494
H      0.94571    -2.57795    -1.56275
O      0.88328    -3.09600    -3.37809
H      0.48944    -0.27864    -1.03814
O      1.60482     2.44179     0.89656
H      2.31493     2.95442     1.29133
O      1.97065     1.11959     1.27660
H      2.01100     0.66136     0.40321
