 24
-909.9835031944824
O     -1.69401    -0.23520     0.73714
H     -2.26032    -0.21810    -0.06664
O     -0.80313    -1.30779     0.43264
H     -0.18164    -1.26327     1.18714
O      0.27923    -0.71143    -1.93498
H     -0.16498    -0.98715    -1.10840
O     -0.31140     0.57025    -2.15303
H      0.08984     1.08713    -1.42307
O      2.88971    -1.10549    -0.61253
H      2.15703    -0.86713    -1.20083
O      2.89059     0.00335     0.28810
H      2.86880    -0.42579     1.15522
O     -3.37622    -0.04635    -1.27347
H     -3.87669    -0.54079    -1.93009
O     -2.96682     1.11857    -1.98874
H     -2.02697     0.90597    -2.15569
O      1.54272    -0.12882     2.81763
H      1.01782     0.54647     2.34372
O      0.74963    -1.28646     2.57644
H      0.44900    -1.52465     3.45970
O      0.87878     1.66167    -0.05649
H      1.64337     1.06868     0.10084
O      0.17903     1.55561     1.18577
H     -0.60848     1.03653     0.91890
