 32
-1213.3042943443031
O      1.35931     1.61004     0.50747
H      1.70983     0.89968    -0.06743
O      0.08755     1.80480    -0.12630
H     -0.54486     1.67124     0.61174
O     -1.06865    -1.01048    -0.53206
H     -0.54884    -0.52063    -1.20144
O     -0.01604    -1.80788     0.02801
H      0.20575    -1.32345     0.84640
O      1.25843     3.17359    -2.07283
H      0.80335     2.73658    -1.32369
O      0.97774     2.24449    -3.12593
H      0.25753     2.67527    -3.59548
O     -2.57784     2.37855     0.97575
H     -2.52651     3.16934     1.51880
O     -1.78830     1.49025     1.76806
H     -2.34168     0.68415     1.76502
O      0.89133    -0.19975    -2.08379
H      1.00656     0.70285    -2.44635
O      2.02700    -0.31294    -1.21930
H      2.25247    -1.25561    -1.35698
O      2.52885    -2.93733    -1.61945
H      2.79801    -3.22474    -2.49677
O      1.28405    -3.63914    -1.46545
H      0.77835    -2.96945    -0.96628
O      0.40273    -0.66852     2.38720
H     -0.46728    -0.76780     2.79463
O      0.84349     0.57122     2.94683
H      1.10814     1.04085     2.13528
O     -2.91364    -0.97506     1.43973
H     -2.33191    -1.21057     0.68696
O     -2.32749    -1.74384     2.49033
H     -3.08558    -2.25722     2.78328
