 36
-1364.9740601638541
O      2.55313     1.98807    -1.09389
H      2.71920     2.13155    -0.15172
O      1.56733     0.96185    -0.97883
H      2.03014     0.19473    -1.37764
O     -0.03519     1.00197     1.87111
H     -0.25375     0.17633     1.38059
O     -1.07221     1.93902     1.61814
H     -1.11639     1.96410     0.64108
O     -3.15061    -0.44207     2.58539
H     -3.78229    -0.70074     3.26156
O     -3.51013     0.91806     2.35037
H     -2.62398     1.30833     2.26305
O     -0.80097     1.28034    -2.11351
H      0.09215     1.29898    -1.70331
O     -1.63810     1.69829    -1.03390
H     -2.08493     0.85480    -0.80086
O     -1.18876    -1.31814    -2.61007
H     -1.10469    -0.33926    -2.59066
O     -0.04385    -1.67364    -1.82657
H      0.54390    -2.11778    -2.45557
O     -2.54322    -0.52498    -0.00093
H     -2.93041    -0.64582     0.89197
O     -3.32917    -1.37458    -0.84556
H     -2.65250    -1.56841    -1.51074
O      2.48805     1.69623     1.67854
H      1.51938     1.54641     1.76323
O      2.96284     0.37073     1.89553
H      3.30222     0.41552     2.79673
O      2.96073    -1.05052    -1.99007
H      3.92343    -1.01862    -2.02054
O      2.69703    -2.35631    -1.48436
H      2.31280    -2.13463    -0.61049
O      1.57622    -1.66701     0.85884
H      1.94400    -0.82819     1.21230
O      0.18107    -1.39539     0.78972
H      0.01085    -1.55786    -0.15909
