 36
-1364.986867405152
O      2.34039    -0.10559    -0.85095
H      1.76421    -0.20171    -0.06255
O      1.44010     0.51350    -1.77300
H      1.12201    -0.26827    -2.27518
O     -1.33359    -2.09694     0.27589
H     -1.25845    -2.27159    -0.68032
O     -2.66270    -1.57037     0.35931
H     -2.61709    -1.10268     1.22029
O     -2.07990     1.27587    -0.51999
H     -1.22205     1.63945    -0.79805
O     -2.35878     0.30013    -1.52045
H     -2.73220    -0.39135    -0.94244
O     -2.09763     1.28744     2.12993
H     -2.17407     1.20583     1.16028
O     -2.20180    -0.07848     2.53727
H     -1.26186    -0.27067     2.73404
O     -0.83552    -1.98636    -2.38546
H     -1.20237    -1.09051    -2.44818
O      0.50448    -1.75364    -2.81833
H      1.00572    -2.47373    -2.38161
O      1.09768     2.24227     2.44678
H      1.52839     2.34248     1.57701
O     -0.05960     3.05357     2.22407
H     -0.78171     2.40785     2.33093
O      1.43248     2.62832    -0.14696
H      1.54792     1.96113    -0.85017
O      0.14804     3.17236    -0.48738
H     -0.10160     3.51729     0.38391
O      0.63214    -0.43706     1.11911
H     -0.08852    -1.05395     0.84883
O      0.45050    -0.34399     2.53163
H      0.74144     0.58111     2.66013
O      2.11358    -3.23974    -1.31497
H      2.52532    -4.10843    -1.27514
O      3.16754    -2.45245    -1.87817
H      2.98180    -1.59864    -1.44273
