 20
-758.3050107759055
O      0.67672    -2.00927     1.75898
H      1.38696    -1.89115     1.11483
O     -0.47114    -1.70689     0.96578
H     -0.84458    -0.94959     1.44812
O      3.59056    -0.01501     0.36907
H      4.29018    -0.25660    -0.24607
O      2.48827    -0.74525    -0.17995
H      1.85222    -0.02961    -0.32383
O     -1.48942     0.65238     1.83335
H     -2.28668     0.84550     2.33521
O     -1.76112     1.33756     0.61087
H     -0.85869     1.56248     0.31779
O     -2.51331    -0.49386    -1.26252
H     -2.41975     0.24731    -0.64304
O     -1.13427    -0.79554    -1.48950
H     -0.90085    -1.28922    -0.67900
O      0.01040     1.60276    -1.79131
H     -0.41072     0.71208    -1.77884
O      0.65138     1.59723    -0.50895
H      1.25769     2.34212    -0.58546
