 24
-909.9824448146425
O     -0.74876    -1.60787    -1.33397
H     -0.72937    -0.63946    -1.48496
O      0.63037    -1.96916    -1.41081
H      0.83799    -2.15971    -0.47996
O     -2.47741    -0.64483     1.02635
H     -3.38284    -0.94894     1.15285
O     -1.73611    -1.85959     1.11537
H     -1.45900    -1.95783     0.17875
O      2.13060     0.29135    -1.66217
H      1.65358    -0.55946    -1.62987
O      2.74208     0.32762    -0.37082
H      2.37931     1.15623    -0.02303
O     -0.90977     1.05560    -1.48020
H     -0.12640     1.56146    -1.20575
O     -1.86943     1.49528    -0.51139
H     -2.01114     0.69185     0.01825
O      1.57119    -1.55114     1.11839
H      2.20257    -0.94153     0.69097
O      0.69280    -0.59089     1.72227
H     -0.10699    -1.12234     1.85636
O      0.61528     2.13079     0.60067
H      0.47243     1.34130     1.14786
O     -0.36044     3.03702     1.11828
H     -1.11575     2.79767     0.55771
