 32
-1213.31585372637
O      1.44821     3.19137     1.08399
H      1.76622     2.36355     0.68907
O      0.77345     2.70133     2.24799
H     -0.14310     2.80108     1.92882
O     -1.76148     0.07606     1.18111
H     -1.10360    -0.07495     1.88300
O     -1.18160    -0.74869     0.16846
H     -1.47592    -0.32334    -0.66760
O     -1.81529    -3.01874    -1.65520
H     -2.14683    -3.67156    -2.27892
O     -0.67193    -2.54474    -2.35657
H      0.04407    -2.79063    -1.73245
O      0.38438    -0.05202     2.80018
H      0.67313     0.87656     2.82476
O      1.51567    -0.65483     2.16993
H      1.17947    -1.53149     1.89500
O      1.77879    -0.20610    -1.09740
H      1.04965     0.04387    -1.69816
O      1.64419     0.78006    -0.07846
H      1.55120     0.23250     0.72723
O     -0.39684     0.12194    -2.64981
H     -0.64964    -0.82034    -2.72478
O     -1.56343     0.67163    -2.04397
H     -1.23630     1.53286    -1.71477
O      0.64083    -2.80152     0.80213
H     -0.26484    -2.52133     0.59979
O      1.25933    -2.74718    -0.48107
H      1.55504    -1.81376    -0.55280
O     -0.72925     2.80876    -0.62089
H      0.12843     3.18455    -0.36570
O     -1.34050     2.65685     0.66123
H     -1.55503     1.70002     0.69176
