 16
-606.629460065295
O     -2.96760     0.18269    -0.47990
H     -2.66856    -0.62525    -0.04076
O     -2.85272     1.12342     0.60003
H     -3.77388     1.36735     0.73972
O      2.49216    -0.64565     1.98384
H      3.31134    -1.13824     2.09638
O      2.35055    -0.64652     0.55983
H      1.62567    -1.27773     0.43333
O      1.28491     1.56130    -2.36153
H      1.15566     2.51380    -2.30990
O      0.76206     1.13791    -1.09883
H      1.56251     0.83117    -0.64456
O     -1.02026    -1.51387     0.75708
H     -0.72564    -0.73098     1.23810
O     -0.17650    -1.53820    -0.39815
H     -0.29070    -0.65174    -0.77998
