 32
-1213.3058243279097
O      0.36923    -1.49154     1.10515
H      0.81210    -1.39847     0.24740
O      1.18343    -0.67653     1.95410
H      1.14189     0.17946     1.48872
O      0.99701    -2.71801    -2.49116
H      1.07617    -3.31524    -1.74142
O      0.78512    -1.48455    -1.81578
H     -0.17396    -1.32561    -1.96619
O     -2.48249    -0.13938    -1.70132
H     -2.70211    -0.40831    -0.78170
O     -1.84292    -1.33191    -2.15893
H     -2.47432    -1.69608    -2.78764
O     -2.43237     0.45066     1.19163
H     -1.60882     0.86315     0.86684
O     -2.24490    -0.91372     0.81563
H     -1.30544    -1.10617     1.02427
O     -0.01244     1.33871    -2.70145
H     -0.82252     1.10529    -2.23066
O      0.62594     2.18686    -1.73582
H      1.55846     2.04624    -1.95918
O      2.94766     0.51456    -1.80193
H      2.33637    -0.17063    -2.11140
O      2.99675     0.19006    -0.41468
H      3.91814    -0.06228    -0.29343
O     -0.45144    -0.07759     4.10769
H      0.19126    -0.29033     3.41002
O     -1.07922     1.09540     3.57817
H     -1.82989     0.72785     3.08470
O      0.01273     1.27353     0.67584
H      0.30742     1.69098    -0.17101
O      0.40225     2.21793     1.67667
H     -0.12325     1.86272     2.43129
