 40
-1516.6492187594333
O      0.47017     1.23086     2.75849
H      0.15299     1.91384     2.13275
O      1.70617     0.81779     2.14390
H      2.23745     1.64060     2.16039
O      2.94442    -0.48255    -1.39959
H      2.33270    -0.98743    -0.84381
O      2.31074     0.79082    -1.41417
H      2.80112     1.30357    -0.74662
O     -0.65354     1.27197    -2.30904
H     -1.57755     0.94158    -2.30670
O      0.09238     0.09513    -2.63373
H      0.98774     0.36207    -2.31842
O     -1.43905    -0.51449     1.79599
H     -0.70915    -0.01767     2.23487
O     -1.34086    -0.04265     0.45210
H     -0.65722    -0.64337     0.07499
O     -3.07782     0.11998    -2.11677
H     -2.85513    -0.83768    -2.12862
O     -4.01650     0.18876    -1.04418
H     -3.43373     0.09393    -0.28025
O      0.38694     2.72350    -0.33572
H      0.05932     2.25849    -1.13820
O     -0.64449     2.49138     0.63264
H     -0.97542     1.59731     0.40165
O      2.90495     2.89651     0.46652
H      1.96531     3.07244     0.26957
O      2.93735     3.21287     1.85278
H      3.83930     3.53014     1.94943
O     -1.98101    -2.98612     0.84672
H     -1.80261    -2.18867     1.37840
O     -0.74959    -3.69987     0.92910
H     -0.41887    -3.57948     0.02849
O      1.13217    -1.43281     0.77566
H      1.36727    -0.62124     1.27532
O      1.62318    -2.44760     1.65406
H      0.80534    -2.94012     1.79887
O     -0.71291    -2.15061    -1.47133
H     -0.49057    -1.39167    -2.04648
O     -2.11687    -2.33160    -1.71961
H     -2.37826    -2.61309    -0.82093
