 20
-758.3133942467174
O     -0.81656    -1.63396     0.35207
H     -1.59208    -1.04775     0.51598
O      0.06381    -1.17910     1.37943
H      0.92789    -1.45284     1.02568
O      2.85341    -0.01353     0.08042
H      2.30878     0.50687     0.69353
O      2.57939    -1.34269     0.50066
H      3.39844    -1.60554     0.93217
O      0.52909     1.42782     1.24773
H      0.14215     0.54255     1.38247
O     -0.38815     1.99165     0.29931
H     -0.00309     1.66058    -0.53370
O      0.66108     0.58484    -1.69631
H      1.48060     0.13980    -1.42917
O     -0.23746    -0.48193    -2.02033
H     -0.32470    -0.96944    -1.17625
O     -3.04097     0.35685    -0.85939
H     -2.25498     0.19889    -1.40369
O     -2.52524     0.37314     0.46572
H     -1.92781     1.15339     0.46665
