 28
-1061.636064902737
O      0.08408    -1.96338    -1.98188
H     -0.10213    -2.21600    -2.89027
O      1.30342    -2.65769    -1.72671
H      1.75417    -1.97508    -1.19486
O     -0.45269     1.68608    -0.87794
H     -1.40360     1.48107    -0.99146
O      0.14687     1.07087    -2.02165
H      0.00328     0.13550    -1.81814
O      1.06354    -0.95345     2.54489
H      0.67304    -1.72020     2.10372
O     -0.08781    -0.09484     2.56870
H     -0.38031    -2.23944    -0.32803
O      1.10908     1.95376     1.30397
H      0.59013     1.93867     0.47194
O      0.85111     3.28187     1.75572
H      1.74801     3.61742     1.82602
O     -3.86800     1.03101    -0.44273
H     -4.59607     0.91776    -1.06053
O     -2.82085     0.36241    -1.14172
H     -2.56209    -0.32548    -0.49608
O     -1.60952    -1.22342     0.69489
H     -1.26279    -0.64493     1.40437
O     -0.54106    -2.19013     0.62907
H      0.30898     0.74597     2.27094
O      2.81845     0.39502    -0.76556
H      2.08813     0.87818    -1.17830
O      2.10605    -0.66804    -0.12857
H      2.14365    -0.43869     0.81265
