 20
-758.3069435318405
O     -0.95913    -1.98949     0.06130
H     -1.21089    -1.22332     0.62641
O      0.44520    -2.04567     0.31096
H      0.53139    -2.85800     0.82005
O      1.54444     0.12528     1.40740
H      1.11151    -0.62301     0.94526
O      2.61735    -0.54272     2.07973
H      2.39925    -0.34077     2.99457
O      0.09496     1.86841    -0.49722
H      0.24905     1.26944    -1.25375
O      1.39044     2.43809    -0.28425
H      1.72493     1.85185     0.40710
O      0.27808     0.00122    -2.42491
H      0.25070     0.08225    -3.38390
O     -1.08588    -0.26990    -2.11685
H     -0.98439    -1.06049    -1.56147
O     -2.64874     0.54811     0.36697
H     -2.33309     0.51035    -0.54746
O     -1.43764     0.37898     1.09560
H     -0.84081     1.04227     0.68013
