 36
-1364.9762224191672
O      2.58288     2.21789     2.34026
H      2.92987     2.21613     3.23754
O      2.65485     0.82424     2.01668
H      1.70183     0.59738     1.95876
O      0.73692    -2.52906     2.15398
H     -0.10129    -2.09333     1.94068
O      1.58290    -1.84225     1.23193
H      2.46199    -1.93957     1.61847
O     -0.23930     0.18454    -2.33239
H     -0.90692     0.82080    -2.66064
O      0.35432     1.00425    -1.30871
H      1.28044     0.66848    -1.29590
O      0.05091     0.64328     1.53516
H     -0.15839     0.47931     0.59569
O     -0.49749     1.93944     1.75412
H      0.30319     2.46637     1.89844
O     -1.72205     2.62266    -1.04002
H     -0.84526     2.21515    -0.95270
O     -2.10846     2.06398    -2.31165
H     -2.88126     1.54375    -2.01378
O     -3.65396     0.52748    -0.82227
H     -3.14829    -0.30664    -0.84749
O     -3.28550     0.95571     0.50706
H     -2.88084     1.81415     0.30634
O      0.95957    -2.18104    -1.97921
H      0.40213    -1.39632    -2.14045
O      0.28768    -2.77407    -0.86496
H      0.90192    -2.56739    -0.13069
O      3.30049    -1.13062    -1.10810
H      2.50104    -1.54335    -1.48424
O      2.82444     0.19576    -0.86402
H      3.06117     0.33293     0.06502
O     -1.92177    -1.51138     1.11469
H     -2.32111    -0.64706     1.30492
O     -1.99170    -1.48591    -0.32220
H     -1.23407    -2.05864    -0.56954
