 32
-1213.3128492505991
O      2.71914    -0.99669    -0.74776
H      2.64416    -0.04097    -0.95743
O      2.85539    -0.97107     0.66670
H      3.76599    -1.25992     0.77388
O     -2.84883    -0.68912     0.35830
H     -2.29742    -0.98946     1.09786
O     -2.72240    -1.79092    -0.56326
H     -2.58797    -1.30117    -1.38776
O     -1.16948    -0.44906    -2.39885
H     -0.51332    -1.17215    -2.35787
O     -0.45431     0.58790    -1.73449
H     -0.59984     0.40248    -0.78773
O     -1.52243     1.80930     0.62723
H     -2.25782     1.21908     0.38638
O     -1.71265     2.94825    -0.20854
H     -0.81414     3.06100    -0.54845
O      1.49243     1.43405     1.96642
H      1.54534     0.51418     1.66052
O      0.21150     1.46913     2.59429
H     -0.36082     1.79033     1.86850
O      0.54586    -2.34892    -1.65912
H      1.36041    -1.94747    -1.29695
O     -0.03268    -2.94282    -0.49189
H     -0.98038    -2.84631    -0.67512
O      1.48050     2.63479    -0.41673
H      1.57303     2.26503     0.48836
O      1.95209     1.55619    -1.23828
H      1.11517     1.27890    -1.65782
O     -0.84108    -0.98910     2.18175
H     -0.64132    -0.15938     2.64784
O     -0.09034    -0.71548     0.99499
H      0.07345    -1.60605     0.62819
