 36
-1364.972233980889
O      1.12995     2.59107     1.59604
H      1.69867     3.15443     2.13656
O      0.93214     3.38730     0.42314
H      1.46029     2.88720    -0.23144
O     -2.66397    -1.77342    -2.44136
H     -2.22550    -1.06121    -2.92625
O     -3.55330    -0.99915    -1.61365
H     -3.71429    -1.62238    -0.88408
O      3.34013     0.94382     2.89986
H      2.70675     0.41803     2.38545
O      4.03117     1.62669     1.86020
H      4.93569     1.32094     1.98247
O      0.34622     0.04767    -1.98445
H      0.13811    -0.72318    -1.42300
O     -0.91830     0.47891    -2.48961
H     -1.34686     0.84534    -1.69716
O     -2.85175    -1.39667     1.22097
H     -2.04969    -1.74527     0.78592
O     -3.81480    -2.32670     0.72005
H     -4.55100    -2.16527     1.31713
O     -0.93699     1.02840     0.48629
H     -0.59128     1.88643     0.79537
O     -2.30583     1.31612     0.19901
H     -2.72976     0.58314     0.66972
O      3.09055     0.78708    -0.50887
H      3.31365     1.28239     0.30032
O      2.26760     1.70653    -1.22585
H      1.55127     1.11047    -1.53471
O      1.59864    -1.29418     0.18826
H      2.25769    -0.69213    -0.21228
O      1.16314    -0.49759     1.29815
H      0.40800    -0.00551     0.92613
O     -0.15754    -3.46050    -0.27316
H      0.65809    -3.02624     0.01201
O     -0.95063    -2.28661    -0.45567
H     -1.46424    -2.45855    -1.27109
