 36
-1364.9748506780463
O     -3.04539     2.11384    -0.63760
H     -2.29344     1.68456    -1.11296
O     -3.51979     1.02858     0.16917
H     -4.27217     0.70670    -0.33873
O     -1.62821    -1.59151    -0.26055
H     -1.10589    -2.31678     0.11654
O     -1.31799    -0.55948     0.68570
H     -2.09915     0.01777     0.62702
O      1.17066    -0.64483     2.37078
H      1.15744     0.19044     1.85272
O      2.56435    -0.98335     2.39057
H      2.46779    -1.94816     2.45198
O      0.21545    -1.44742    -2.37343
H     -0.52072    -0.96440    -1.95552
O      0.51644    -0.63149    -3.49991
H      0.16150    -1.16438    -4.21911
O     -0.65043     1.73968    -2.92895
H     -0.14461     1.03825    -3.36269
O     -0.86537     1.07472    -1.68156
H     -0.04052     1.28584    -1.16980
O     -1.41580     2.31191     2.33079
H     -1.04147     2.83778     3.04280
O     -1.07612     3.12007     1.20683
H     -1.90122     3.09115     0.69636
O      1.37865     1.54267    -0.40075
H      1.95412     0.74884    -0.44396
O      1.14399     1.64507     1.01304
H      0.34574     2.21944     1.03207
O      2.26058    -1.98798    -0.70874
H      1.51988    -1.71272    -1.28182
O      2.81790    -0.73862    -0.29415
H      2.84627    -0.86198     0.67613
O      1.46631    -3.31954     1.45002
H      1.74912    -2.98132     0.58160
O      0.10966    -2.87613     1.48244
H      0.24951    -1.97817     1.84970
