 20
-758.3033242402806
O     -1.69453    -1.49668     1.49632
H     -1.87786    -2.41465     1.71017
O     -1.23116    -1.60506     0.15117
H     -0.26987    -1.43113     0.25417
O      3.48950    -0.19962    -2.06898
H      2.65473     0.21825    -1.81040
O      3.72135    -1.03058    -0.92061
H      4.47784    -0.59921    -0.50951
O     -0.62984     1.73634     0.86146
H     -1.49121     1.67664     0.39779
O     -0.97208     1.44133     2.21547
H     -1.34629     0.55616     2.12671
O      1.32526    -0.89245     0.28916
H      2.19380    -1.14102    -0.07588
O      1.00615     0.19693    -0.58984
H      0.50960     0.78160     0.01973
O     -2.08935     0.47369    -1.36877
H     -1.89751    -0.33643    -0.86682
O     -2.89418     1.16204    -0.40808
H     -3.50944     1.62929    -0.98022
