 36
-1364.982539072598
O      2.81085     1.19289     0.43418
H      2.71509     1.34440    -0.52958
O      1.78537     2.05083     0.93411
H      1.09728     1.41453     1.22506
O     -0.66935     2.40177    -0.82540
H     -1.09557     2.31903    -1.69381
O      0.48504     3.19297    -1.10687
H      0.98608     3.03208    -0.28658
O      0.07637    -2.67144     2.36671
H     -0.05427    -2.62063     3.32125
O      1.01382    -3.73111     2.19853
H      1.75974    -3.22565     1.84363
O     -2.32280     0.83633    -2.49059
H     -2.78912     0.71781    -1.63765
O     -1.48341    -0.31689    -2.46319
H     -0.59505     0.08603    -2.44916
O     -2.49799     1.37445     0.84958
H     -1.79947     1.73958     0.27832
O     -3.08869     0.38905     0.00993
H     -2.60420    -0.41716     0.27508
O     -1.63362    -1.79285     0.48395
H     -1.08139    -2.18405     1.18656
O     -0.94760    -2.25663    -0.67927
H     -1.30153    -1.66073    -1.37112
O      1.09824     0.47587    -2.13549
H      1.44407    -0.26931    -1.59975
O      2.21101     1.36906    -2.16235
H      1.72065     2.20404    -2.19204
O     -0.97662     0.18260     2.68701
H     -1.71767     0.59376     2.20269
O      0.00241     0.23634     1.64519
H      0.48886    -0.59349     1.79205
O      2.14866    -1.40560     0.71933
H      2.48977    -0.48884     0.64832
O      1.67734    -1.62980    -0.61139
H      0.79419    -2.03722    -0.48251
