 36
-1364.9824523075004
O     -1.10351     1.84031    -1.20647
H     -1.54577     0.99917    -0.95636
O     -1.00730     2.46908     0.07475
H     -0.51796     3.27673    -0.14781
O     -1.19964    -1.63231    -1.05981
H     -0.53969    -1.15883    -1.61217
O     -2.02375    -0.55843    -0.58975
H     -2.14467    -0.76703     0.36980
O      1.41638    -3.00685     0.00577
H      1.59495    -2.23168    -0.54409
O      0.68433    -2.40860     1.06744
H     -0.08154    -3.01112     1.16078
O      1.91123    -0.54107    -1.63617
H      2.35861     0.31653    -1.47719
O      0.72249    -0.16917    -2.33707
H      0.47854     0.67819    -1.93095
O      0.96139     4.42633    -0.42628
H      1.59679     3.85101     0.04394
O      1.31804     4.11089    -1.77692
H      1.70043     4.94212    -2.07831
O      1.04375     0.21472     1.07248
H      0.83680    -0.75476     1.07933
O     -0.02655     0.75099     1.85680
H     -0.41673     1.38157     1.21688
O     -1.38343    -4.13303     1.07863
H     -1.37083    -5.04593     0.77029
O     -2.46564    -3.55778     0.34533
H     -1.98300    -2.98888    -0.28279
O      2.75541     1.97124    -1.13326
H      2.22122     2.63046    -1.61165
O      2.40729     2.30719     0.21433
H      1.90257     1.51225     0.50447
O     -2.62145    -1.13149     1.90825
H     -2.87117    -2.06034     1.79945
O     -1.51735    -1.24657     2.81640
H     -0.97683    -0.48311     2.53052
