 24
-909.976227641567
O     -3.04678    -0.54592     0.67122
H     -2.54829    -0.08450    -0.01831
O     -2.38680    -0.06547     1.84835
H     -1.76654    -0.79722     2.01684
O      1.49891    -1.82015    -0.94343
H      1.55913    -1.68094     0.02310
O      0.11367    -2.18576    -1.00868
H     -0.26140    -1.38916    -1.41821
O      2.04783     0.98782    -1.29882
H      2.20388     0.03107    -1.23067
O      3.03105     1.50638    -0.40370
H      3.55358     2.05454    -0.99657
O     -1.81237     0.76630    -1.40052
H     -2.34077     0.99211    -2.17231
O     -0.67637     0.16213    -1.99948
H      0.02895     0.75517    -1.69245
O      0.84773    -1.05098     1.47268
H      0.47993    -0.16772     1.23764
O     -0.33962    -1.84806     1.58300
H     -0.41457    -2.18617     0.66825
O      0.69921     2.19588     1.54568
H      1.50971     2.01993     1.05172
O     -0.17190     1.29773     0.84522
H     -0.98702     1.30325     1.37733
