 16
-606.6315981395691
O      0.08045     2.17887     1.01314
H      0.72247     1.49122     1.25780
O     -1.12988     1.50109     1.38748
H     -1.60722     2.20581     1.83240
O      1.56916    -0.07095     1.66808
H      1.69326    -0.66146     0.91496
O      0.66481    -0.81513     2.49996
H     -0.16797    -0.35495     2.32091
O     -0.62815     0.55558    -1.23098
H     -0.95706     1.19779    -0.58205
O     -1.72954     0.43589    -2.13802
H     -1.31356     0.72783    -2.95311
O      1.04333    -1.55654    -1.92181
H      0.35006    -0.91248    -1.69928
O      0.66894    -2.65434    -1.07842
H      0.42738    -3.31958    -1.72951
