 16
-606.639001286054
O     -1.40024    -0.42842     1.32611
H     -2.09282    -0.63088     1.96358
O     -1.96181     0.70018     0.64793
H     -1.19230     1.28732     0.63213
O      0.47649     2.20555     0.15822
H      0.78844     1.58894    -0.54087
O      1.28978     1.73769     1.24703
H      2.09405     2.24914     1.12399
O      1.46000     0.18491    -1.24854
H      0.71877    -0.44670    -1.33753
O      2.24884    -0.44425    -0.22876
H      1.87215    -0.02766     0.55904
O     -0.83296    -1.23269    -1.21850
H     -1.15313    -1.06451    -0.31153
O     -0.83189    -2.65994    -1.29352
H     -1.47303    -2.79948    -1.99649
