 24
-909.9810644741852
O      0.21807    -3.22141     0.47387
H      0.07828    -2.47776     1.10025
O     -0.76824    -2.91093    -0.51084
H     -1.51295    -3.46636    -0.25550
O     -0.87812    -0.32329    -1.21178
H     -0.81149    -1.27013    -0.97247
O     -1.62797     0.18801    -0.10049
H     -1.89814     1.06898    -0.44303
O      2.58631    -0.85932     0.06256
H      2.65148     0.04295    -0.28278
O      2.01051    -1.52640    -1.06915
H      1.88580    -2.41279    -0.70629
O      1.31562     1.61718    -0.59304
H      0.64497     1.03137    -0.98063
O      0.62034     2.11192     0.56279
H      0.67498     1.35227     1.17931
O      0.86636    -0.18875     1.99450
H      1.47730    -0.61559     1.36387
O     -0.30652    -0.99032     1.86271
H     -0.82305    -0.46766     1.21183
O     -1.84920     3.60604    -0.25791
H     -0.98432     3.22883    -0.03097
O     -2.39244     2.54696    -1.04657
H     -2.43614     2.92865    -1.92993
