 24
-909.9727693486906
O     -1.06825    -1.20990     0.46397
H     -0.72791    -0.82543     1.29159
O     -2.48095    -1.21747     0.62686
H     -2.68337    -0.35141     0.21478
O      0.05143    -1.11285    -2.54767
H     -0.36176    -1.74613    -3.14134
O      0.49985    -1.95166    -1.48983
H     -0.17959    -1.75936    -0.79801
O      2.47475    -0.70883    -0.07640
H      1.92395    -1.25419    -0.66977
O      2.37816     0.55541    -0.73562
H      3.26210     0.90924    -0.60152
O     -2.19397     0.88428    -1.89513
H     -1.52232     0.19394    -1.82141
O     -2.42818     1.18319    -0.51846
H     -1.56649     1.56517    -0.25121
O      1.56721     0.09725     2.35444
H      1.87952    -0.35282     1.54463
O      0.33892    -0.57600     2.61025
H      0.51581    -1.02820     3.44052
O      0.68149     2.47607     1.11859
H      0.91425     1.72978     1.68839
O      0.10158     1.78264     0.01619
H      0.87639     1.37775    -0.41807
