 36
-1364.9781554323474
O      0.96541    -1.59508    -0.96421
H      0.32300    -1.55491    -0.22917
O      1.95352    -2.46967    -0.40041
H      2.60879    -1.81935    -0.09704
O     -2.47447    -1.91575     2.81383
H     -2.89109    -2.40096     3.53300
O     -3.27251    -2.29823     1.68886
H     -3.18216    -1.49516     1.15084
O     -0.27152    -1.96762     1.35994
H     -1.06886    -2.05935     1.93076
O      0.70359    -2.74555     2.06913
H      1.10386    -3.19167     1.31064
O      2.61804     1.17952    -1.63357
H      1.90559     1.84860    -1.56142
O      1.99743     0.27188    -2.55177
H      1.66857    -0.43070    -1.94678
O     -2.69827     1.57939    -1.89419
H     -1.92399     1.50803    -2.48206
O     -2.23456     2.67114    -1.07469
H     -2.41869     2.28814    -0.19523
O     -2.50184     0.94965     0.88142
H     -1.58238     0.91671     1.22584
O     -2.53560    -0.20817     0.02956
H     -2.72415     0.23430    -0.82563
O      0.41822     2.58311    -2.06409
H     -0.30373     2.77022    -1.44192
O     -0.23034     1.66469    -2.96979
H      0.50268     1.02913    -3.08066
O      3.05499     0.27076     1.38288
H      3.82386     0.53186     1.89614
O      3.63125    -0.38531     0.25909
H      3.38643     0.24663    -0.45502
O      0.82962     1.55773     0.74331
H      1.72077     1.22012     0.96226
O      0.03161     0.95577     1.76482
H      0.25490     0.01674     1.67479
