 20
-758.298376718771
O     -3.50193    -0.44097     0.75959
H     -3.81076     0.20586     1.40105
O     -3.05388    -1.48973     1.62553
H     -2.16013    -1.64580     1.27504
O      2.18772    -0.89780    -1.03883
H      1.60776    -1.07967    -0.28169
O      3.16154    -0.05266    -0.41250
H      3.97793    -0.44386    -0.73443
O     -1.46506     0.35427    -0.83087
H     -2.22176     0.08963    -0.27661
O     -0.67163     1.03683     0.14544
H     -0.01575     1.47381    -0.43934
O      0.99396     2.18784    -1.56223
H      0.86381     2.91912    -2.17386
O      2.25885     2.50904    -0.97167
H      2.63385     1.61723    -0.91537
O     -0.55272    -2.22847     0.93205
H     -0.22732    -2.87333     1.56710
O      0.38155    -1.16448     1.13115
H     -0.14365    -0.38047     0.84530
