 32
-1213.3053289840952
O     -0.42324    -2.32850     1.23048
H      0.46552    -2.70240     1.11814
O     -1.11085    -2.89837     0.09957
H     -1.74674    -2.18916    -0.06947
O      0.80934     0.27560     1.90692
H     -0.15877     0.35784     1.88587
O      1.11963     0.25231     0.51752
H      1.63360    -0.56716     0.42070
O     -1.61802    -0.22614    -0.54885
H     -0.65145    -0.10783    -0.45040
O     -1.86302     0.09971    -1.91159
H     -1.49950     1.01565    -1.92337
O      0.80418     1.93784    -2.10717
H      0.82638     0.97227    -2.02669
O     -0.44408     2.25548    -1.50083
H     -0.17215     2.58451    -0.62502
O      0.67050     3.00847     0.85958
H      1.23476     2.23397     1.02596
O      0.51654     3.56453     2.16502
H      0.77049     4.47661     1.99885
O      0.56947    -2.60184    -1.97889
H     -0.05538    -2.79000    -1.24680
O      0.50206    -1.17445    -2.07137
H     -0.42408    -1.00974    -2.33370
O      2.10382    -3.18045     0.74548
H      2.91188    -3.46546     1.18131
O      2.60722    -2.20473    -0.17149
H      2.15881    -2.48254    -0.99121
O     -2.54476     1.89104     0.82853
H     -2.39112     1.08820     0.29788
O     -1.92979     1.51792     2.07465
H     -1.39558     2.30122     2.25220
