 32
-1213.3110435002452
O     -1.62662    -0.92211     1.37024
H     -0.68130    -1.08942     1.57478
O     -1.53221    -0.28081     0.09302
H     -1.44597    -1.04391    -0.52460
O      0.84966    -3.69474    -0.11319
H      1.37895    -4.45073    -0.38746
O      1.77435    -2.61249    -0.31089
H      1.34996    -2.17714    -1.08036
O     -0.58204     1.13196    -3.52391
H     -0.24559     1.19548    -2.60845
O     -1.33143    -0.08403    -3.47425
H     -2.23531     0.22075    -3.34000
O      1.33805     0.43739    -0.93254
H      1.50245     0.35568     0.03480
O      0.24455     1.35187    -0.93320
H     -0.43852     0.86243    -0.41930
O      1.24326     3.11565     0.75403
H      0.91960     2.59340    -0.00930
O      0.03402     3.77899     1.13582
H      0.33139     4.69017     1.20737
O     -1.18211    -2.45571    -1.43387
H     -0.71971    -3.09846    -0.87324
O     -0.03915    -1.88528    -2.09101
H     -0.47057    -1.19255    -2.64481
O      1.53103     0.07755     1.67322
H      0.90589     0.63530     2.19490
O      0.97981    -1.22436     1.89227
H      1.38353    -1.72587     1.15713
O     -0.09048     1.76291     2.90666
H     -0.12085     2.61407     2.42342
O     -1.46778     1.49275     3.16592
H     -1.64648     0.78955     2.52460
