 36
-1364.9747136399064
O      2.01949     2.29492     2.03274
H      1.97172     2.87325     2.80242
O      3.03791     2.90620     1.23618
H      2.48386     3.21645     0.49626
O     -2.60548    -3.15164    -0.47510
H     -3.10066    -3.93078    -0.20211
O     -1.70518    -3.01190     0.62313
H     -1.91699    -2.10931     0.92761
O      2.63023    -0.80587     0.83515
H      2.02906    -1.54649     0.61695
O      2.16198    -0.42455     2.12567
H      2.37326     0.52540     2.13469
O      1.38708     1.02123    -2.46965
H      0.48804     0.64189    -2.56033
O      2.07359    -0.05790    -1.84801
H      2.16784     0.22155    -0.92142
O     -1.07505     0.06237    -2.28237
H     -0.92054    -0.73684    -1.74856
O     -1.76027     0.93887    -1.39270
H     -1.04621     1.51083    -1.03156
O      1.17538     3.04972    -0.74306
H      1.33616     2.38950    -1.44944
O     -0.01304     2.51728    -0.16076
H      0.30889     2.12464     0.67198
O     -4.25204    -0.97433    -0.05282
H     -3.86224    -1.74599    -0.48132
O     -3.06061    -0.38817     0.48164
H     -2.73736     0.10461    -0.29990
O      0.85914    -2.54174    -0.14889
H     -0.01235    -2.84222     0.17210
O      0.55774    -2.19955    -1.50144
H      1.26526    -1.55722    -1.69765
O     -0.80581     0.80686     1.94415
H     -1.72245     0.78401     1.63433
O     -0.45960    -0.56278     1.71878
H      0.47543    -0.58039     2.01831
