 36
-1364.9804499483917
O      0.08348     1.21500     3.13310
H     -0.59824     0.51158     3.07053
O     -0.53560     2.29529     2.43895
H      0.18077     2.60897     1.86892
O     -1.38924    -0.96020     2.72081
H     -1.82162    -1.16136     1.87910
O     -0.43182    -2.01983     2.80915
H      0.41416    -1.56998     2.61468
O      0.97444     2.73506    -0.15041
H      0.29021     2.04844    -0.25728
O      1.54317     2.69853    -1.46699
H      2.28348     2.08277    -1.32369
O     -2.58710    -2.42801    -3.19999
H     -2.17483    -3.10848    -3.73900
O     -1.43158    -1.79098    -2.65347
H     -1.39463    -0.92934    -3.10937
O      0.22596     0.65946    -2.76665
H      0.63327     1.54155    -2.68440
O     -1.16367     0.99032    -2.85265
H     -1.37429     1.14906    -1.91538
O     -2.06216     1.20547     0.52448
H     -1.65431     1.66105     1.28658
O     -0.86365     0.91632    -0.19302
H     -0.77409    -0.05896    -0.06336
O      1.88642    -1.12574     1.79845
H      1.88310    -1.37832     0.86136
O      2.13380     0.27908     1.68440
H      1.43848     0.65161     2.26885
O      2.90213     0.46225    -0.85174
H      2.88977     0.58231     0.11491
O      1.93170    -0.58618    -0.94852
H      1.30113    -0.24527    -1.60844
O     -0.20764    -2.75714     0.12580
H     -0.34123    -2.95109     1.06419
O     -1.14026    -1.67928    -0.00782
H     -1.42954    -1.80934    -0.93966
