 32
-1213.3021897853905
O     -0.15496    -0.82294     1.14474
H      0.52062    -0.36851     0.60566
O      0.51286    -2.01592     1.56545
H      0.25816    -2.62403     0.85065
O     -0.11785    -3.78569    -0.51030
H      0.13106    -4.64017    -0.87013
O     -0.07681    -2.96427    -1.68534
H     -0.93245    -2.48638    -1.58420
O     -2.22340    -1.46515    -1.19580
H     -2.54832    -0.99980    -0.40074
O     -2.09335    -0.39510    -2.13177
H     -1.13770    -0.22916    -2.10404
O     -3.14325     0.13645     0.78590
H     -4.04128     0.38540     1.01980
O     -2.57602    -0.19649     2.06245
H     -1.68062    -0.46237     1.76386
O      2.50159     2.29578    -0.91539
H      2.38728     1.85340    -0.05126
O      1.82620     3.53391    -0.69055
H      2.55284     4.12760    -0.47691
O      0.93323     0.08846    -2.13384
H      1.32808     0.96188    -1.98762
O      1.61055    -0.68412    -1.13179
H      1.33673    -1.57494    -1.38777
O      2.35998     0.49416     2.61648
H      2.02815    -0.40668     2.49787
O      1.85922     1.12799     1.44078
H      1.07000     1.60469     1.74751
O     -0.37849     2.75092     0.72852
H      0.29792     3.18047     0.18116
O     -0.92846     1.86181    -0.25413
H     -1.68503     1.49104     0.22196
