 40
-1516.642022180764
O      2.97055     1.34040    -0.47229
H      2.64985     2.07733    -1.02271
O      3.19763     0.34608    -1.46827
H      2.30670     0.26363    -1.84748
O     -0.39820    -2.64735     2.71447
H     -0.23510    -2.84558     1.76899
O      0.37725    -1.47720     2.94138
H     -0.03253    -0.81169     2.35859
O     -0.79722     3.25561    -0.93799
H     -0.49264     2.50727    -0.37494
O     -1.83191     2.67837    -1.73260
H     -2.62524     2.93514    -1.25008
O      0.28667     1.44468     0.68427
H      1.12762     0.97775     0.52108
O     -0.51903     0.39379     1.23101
H     -1.28072     0.33893     0.61079
O      0.99232     3.25760    -2.92626
H      0.35754     3.52163    -2.23235
O      2.20431     3.28108    -2.18018
H      2.82501     3.64159    -2.82061
O     -0.53571    -0.34885    -2.26545
H     -0.16398    -1.15249    -1.84013
O      0.60573     0.50769    -2.23199
H      0.35184     1.24331    -2.80770
O     -3.05515    -0.77228     2.43355
H     -3.69748    -0.41441     3.05406
O     -3.05099    -2.15972     2.77213
H     -2.08864    -2.30665     2.88158
O      0.48167    -2.27316    -0.76092
H      1.09527    -1.88302    -0.10541
O     -0.50713    -2.90206     0.05721
H     -1.29643    -2.35401    -0.11495
O      2.77420    -1.86994     1.76394
H      2.11949    -1.75645     2.47120
O      2.20527    -0.96234     0.81035
H      2.98459    -0.57059     0.37951
O     -2.65302    -1.26385    -0.12806
H     -2.97492    -1.15075     0.79297
O     -2.49560     0.09494    -0.53279
H     -1.95638     0.00128    -1.34738
