 24
-909.9793826057213
O     -2.28128    -0.74545    -2.21541
H     -3.03241    -1.27217    -2.50625
O     -2.88644     0.23253    -1.37263
H     -2.67630    -0.14560    -0.49000
O      0.32271    -1.59636    -0.25523
H      1.23653    -1.37959     0.03489
O      0.26607    -0.84531    -1.47612
H     -0.67044    -0.96731    -1.73313
O      2.80989    -0.89652     0.35384
H      2.82512    -0.34378     1.15046
O      3.29083     0.00757    -0.64665
H      3.19846    -0.54658    -1.42679
O     -1.89406    -0.72631     0.90313
H     -1.01782    -1.09125     0.65555
O     -1.53385     0.39011     1.71526
H     -1.36253     1.07470     1.04246
O      1.64822     1.17581     2.03314
H      1.29459     1.38045     1.15064
O      1.05107    -0.08193     2.35182
H      0.09495     0.12010     2.33024
O      0.58318     1.63254    -0.51047
H      0.53213     0.73349    -0.89918
O     -0.78851     1.98870    -0.30192
H     -1.24572     1.66749    -1.09170
