 36
-1364.9809335691793
O     -0.11340     1.25742     1.50826
H      0.74354     0.79157     1.64844
O      0.32270     2.59656     1.26107
H     -0.43673     2.89802     0.74727
O     -2.69626     2.36728    -1.14780
H     -2.72712     1.42231    -0.89476
O     -2.37367     2.96004     0.10952
H     -3.19514     3.39563     0.35675
O      2.27023     0.14354     1.76321
H      2.91574     0.52317     1.13541
O      2.32331    -1.25098     1.46175
H      1.40490    -1.52630     1.67587
O      0.66510     1.50498    -1.36921
H      1.43396     2.09782    -1.34320
O     -0.02528     1.89307    -2.55481
H     -0.84428     2.23736    -2.17221
O     -2.69836    -2.97877    -0.43645
H     -1.79322    -3.12033    -0.08487
O     -3.48942    -3.68319     0.51188
H     -3.90732    -4.33633    -0.05486
O     -2.28258    -0.17724     1.06061
H     -1.61663     0.54263     1.11641
O     -2.54921    -0.24667    -0.34420
H     -2.77384    -1.19383    -0.43956
O      3.87862     1.34669    -0.01715
H      4.83099     1.47720    -0.05993
O      3.51742     1.26929    -1.38939
H      3.21581     0.33960    -1.44476
O      2.47023    -1.22392    -1.17894
H      2.53692    -1.37601    -0.21212
O      1.04973    -1.11129    -1.28503
H      0.90469    -0.14007    -1.22955
O     -0.25384    -1.86635     1.61158
H     -1.08444    -1.36462     1.46225
O     -0.18171    -2.67994     0.43665
H      0.25000    -2.07205    -0.21183
