 40
-1516.6393908206358
O      2.14029     3.09306     0.61747
H      2.19980     2.89631    -0.33370
O      3.18756     2.28040     1.13399
H      3.67925     2.91386     1.66257
O     -0.82655    -1.43222    -2.60147
H     -1.28654    -1.50363    -1.74726
O     -1.23739    -0.14076    -3.04579
H     -0.39251     0.35475    -3.02230
O     -0.85314     2.80725    -0.46327
H     -1.56914     2.13683    -0.53827
O     -0.54397     2.79916     0.93435
H      0.42154     2.92308     0.90076
O     -1.95166    -2.68078     2.79248
H     -2.34281    -3.43048     3.24983
O     -0.62605    -2.65530     3.36040
H     -0.12086    -2.56422     2.53425
O     -2.52543    -0.36911    -0.46687
H     -2.46902    -0.13653     0.47773
O     -2.66749     0.92017    -1.07048
H     -2.34948     0.68082    -1.96334
O      2.21118    -0.23690     0.95794
H      2.68660     0.58871     1.13865
O      1.02725     0.34285     0.39738
H      0.34421    -0.27012     0.72652
O      1.32516     2.25994    -1.93474
H      0.44541     2.39377    -1.53525
O      1.11181     1.09829    -2.73454
H      1.68985     0.43642    -2.30907
O     -2.23116     0.09105     2.15542
H     -2.25066    -0.69644     2.71864
O     -0.89335     0.53552     2.40110
H     -0.87990     1.38806     1.92435
O      2.37238    -1.05725    -1.54860
H      2.45745    -0.87936    -0.59192
O      1.53707    -2.22467    -1.56488
H      0.81261    -1.94964    -2.15757
O      0.17978    -2.40645     0.72183
H      0.82477    -2.44459    -0.01884
O     -1.01133    -2.81716     0.03183
H     -1.63975    -2.76997     0.76747
