 32
-1213.3044834194513
O      3.07332     0.86997     1.94458
H      3.14715     1.38263     1.13128
O      2.16097    -0.15219     1.53612
H      1.48860    -0.12218     2.24668
O     -2.02954    -2.95603    -2.42379
H     -1.73656    -3.62304    -3.05242
O     -0.79764    -2.29973    -2.11703
H     -0.68147    -2.52479    -1.17937
O     -3.31693    -0.09301    -1.93350
H     -3.03330    -0.83451    -2.48419
O     -2.17022     0.04626    -1.09753
H     -2.34046    -0.55239    -0.34800
O     -1.66810    -1.67552     1.24100
H     -1.51991    -1.24306     2.09834
O     -0.34628    -1.74687     0.70627
H     -0.13538    -0.80662     0.58598
O      1.56253     2.77156    -0.53501
H      1.39718     3.41737    -1.23065
O      2.61823     1.96314    -1.06427
H      2.09857     1.22654    -1.45181
O      1.98325    -1.05067    -1.35851
H      2.08050    -0.85012    -0.41385
O      1.02723    -0.07460    -1.74539
H      0.25731    -0.62206    -1.99280
O      0.34629     0.04808     3.50234
H      0.50139     0.67878     4.21332
O     -0.94827     0.42567     3.02527
H     -0.71032     0.89126     2.18830
O     -0.33439     1.36078     0.65588
H      0.42459     1.83330     0.23236
O     -1.44861     2.18402     0.27657
H     -1.84647     1.59359    -0.39300
