 32
-1213.3029237791595
O      1.94686     0.50897    -1.10435
H      2.04510     1.46989    -1.23758
O      2.43344     0.30619     0.22669
H      1.78046     0.80375     0.76051
O     -1.93070    -2.56820     0.00504
H     -1.78309    -3.51353    -0.10963
O     -2.38513    -2.15860    -1.28376
H     -1.66096    -1.54510    -1.52841
O     -0.46757    -0.34454    -1.79966
H      0.43793    -0.14578    -1.48530
O     -1.06250     0.95832    -1.69249
H     -1.74313     0.77255    -1.00998
O      0.68386     2.06049     1.20437
H      0.40176     2.45980     0.37201
O     -0.54334     1.52941     1.70716
H     -0.39310     0.55711     1.60187
O      1.34200     3.05352    -1.55010
H      1.67191     3.91728    -1.81641
O      0.83384     2.53787    -2.78303
H      0.06659     2.03073    -2.45368
O      2.32922    -2.45195     0.44219
H      2.44148    -1.48953     0.34657
O      2.57742    -2.59870     1.84613
H      2.92521    -3.49390     1.87725
O      0.01260    -1.80390     2.42126
H      0.91159    -2.12579     2.23887
O     -0.17160    -1.02051     1.23687
H     -0.81267    -1.56675     0.72977
O     -3.13737     1.61989     0.84201
H     -2.27496     1.74374     1.27597
O     -2.86246     0.39318     0.16066
H     -3.52371    -0.22012     0.50267
