 36
-1364.9714832661887
O      0.78164     2.62714     2.52742
H     -0.18500     2.58430     2.57661
O      1.01959     3.46084     1.38306
H      1.01705     2.79236     0.67110
O      1.74728     0.18211     2.21837
H      1.45703     1.12441     2.27573
O      0.95215    -0.39531     3.26586
H      0.76600    -1.27312     2.90541
O      0.05122    -2.02398    -2.65307
H     -0.09378    -1.31194    -3.30182
O     -1.26904    -2.35170    -2.23403
H     -1.47222    -1.63226    -1.61616
O     -2.81035     0.81454    -0.67233
H     -2.47999     0.90185     0.23738
O     -1.57890     0.41091    -1.28015
H     -1.64020     0.78987    -2.17360
O      0.05438     0.19023    -4.23636
H      0.12771     0.50245    -5.14273
O     -0.29649     1.37810    -3.53670
H      0.45350     1.46200    -2.90891
O      0.70813     1.45067    -0.32451
H     -0.16308     1.06967    -0.57993
O      1.48166     1.36242    -1.52811
H      1.87400     0.47152    -1.40176
O     -1.45382     0.76436     2.94370
H     -0.59306     0.39910     3.22753
O     -1.44136     0.40995     1.56592
H     -1.48936    -0.55976     1.56751
O      1.66268    -1.66523     0.26645
H      1.80962    -0.87498     0.82688
O      2.02592    -1.19711    -1.03136
H      1.36283    -1.64765    -1.58924
O     -0.51862    -2.93708     2.26128
H     -1.03899    -3.73692     2.39049
O     -1.00096    -2.46830     1.00202
H     -0.19184    -2.53273     0.46531
