 20
-758.3082894382037
O     -0.12550    -1.13631     1.37230
H      0.27898    -0.25843     1.20576
O     -1.42948    -0.97010     0.79909
H     -1.29471    -1.38582    -0.07320
O      1.19316     1.08813     0.77085
H      1.60829     1.02569    -0.10271
O      0.58341     2.38777     0.70566
H     -0.32236     2.17778     0.99551
O      0.88371    -2.52140    -0.63688
H      0.65346    -2.20243     0.25923
O     -0.21634    -1.95600    -1.37153
H      0.21438    -1.14275    -1.67965
O      1.49497     0.03919    -1.92930
H      1.85514     0.31503    -2.77786
O      2.67236    -0.43939    -1.26514
H      2.37487    -1.34125    -1.06163
O     -1.96227     1.61960     1.40720
H     -1.94488     0.65561     1.25188
O     -2.83158     2.03656     0.35389
H     -3.50674     2.50246     0.85634
