 32
-1213.3026518343395
O      0.41203     0.17126     0.83787
H     -0.21643     0.15423     1.58132
O      1.69194     0.15783     1.49082
H      2.09792    -0.57926     1.00931
O      0.19506    -2.82693    -0.45440
H      0.93443    -2.33822    -0.88415
O     -0.19743    -3.73362    -1.48785
H     -0.04277    -4.57530    -1.04945
O     -3.27544     0.00622     2.83014
H     -3.18659     0.16706     3.77356
O     -1.97752    -0.50911     2.52566
H     -2.16142    -0.93972     1.66378
O     -1.71236     2.38454     0.94962
H     -1.23228     2.30159     0.11318
O     -2.87333     1.59898     0.67650
H     -3.05453     1.21316     1.55210
O      2.01926    -1.27630    -1.71647
H      1.43656    -0.50222    -1.86307
O      3.00530    -0.82778    -0.77880
H      3.13524     0.10615    -1.01424
O      3.33705     2.11676     0.47560
H      2.70423     1.48828     0.86985
O      3.10344     1.87480    -0.91514
H      3.78954     2.41308    -1.32527
O      0.13607     0.64755    -2.10230
H     -0.67438     0.24922    -1.71814
O      0.06675     1.98662    -1.62332
H      0.96025     2.11556    -1.27473
O     -2.04693    -1.42347     0.05572
H     -1.23783    -1.93195    -0.18485
O     -2.05257    -0.36884    -0.91330
H     -2.44599     0.35401    -0.37403
