 40
-1516.6433336530329
O     -1.21228     2.69034    -1.61047
H     -0.51223     3.27071    -1.26873
O     -1.80448     2.25136    -0.38741
H     -2.46627     1.60361    -0.71395
O      1.86576    -3.95472    -0.04964
H      1.38446    -3.63161     0.73064
O      3.13577    -3.33601     0.13924
H      3.68576    -4.09233     0.37006
O     -0.07404     0.50632    -2.65104
H     -0.58317     1.30704    -2.39870
O     -1.10797    -0.43673    -2.96312
H     -0.73801    -1.25833    -2.57109
O     -0.70653    -0.31219     2.35446
H     -0.39799     0.61622     2.49688
O     -1.32021    -0.21921     1.06711
H     -0.52677    -0.28136     0.48973
O     -1.04631    -2.86101    -0.55498
H     -1.87635    -2.42975    -0.80485
O     -0.24600    -2.62619    -1.71603
H      0.63456    -2.85045    -1.38025
O      0.94327    -0.32926    -0.31200
H      0.81347    -0.08920    -1.25834
O      2.00111     0.54528     0.08320
H      2.24118     0.08816     0.91035
O      1.43251     3.11209     0.40313
H      1.63955     2.21172     0.07682
O      1.16484     3.80781    -0.80988
H      1.56896     4.65884    -0.61999
O     -3.22786    -0.92272    -0.65058
H     -2.67932    -0.62580     0.10102
O     -3.22365     0.23693    -1.48385
H     -2.59836    -0.03498    -2.18668
O      2.43211    -1.34585     1.92057
H      2.92946    -1.96672     1.36685
O      1.23907    -2.12495     2.10254
H      0.54050    -1.44052     2.22398
O     -0.96581     2.95519     2.41063
H     -1.27770     2.60499     1.56232
O      0.20979     2.17325     2.60950
H      0.82712     2.60407     1.99438
