 36
-1364.9782272404796
O      1.69581    -1.00786     2.57587
H      2.38765    -0.54023     3.05562
O      2.43616    -1.82378     1.66559
H      2.41538    -1.27373     0.85431
O      0.36727    -3.21680    -0.56958
H     -0.50163    -3.14816    -0.99958
O      0.00126    -3.00048     0.79852
H      0.85441    -3.12331     1.24418
O      2.00116    -0.29930    -0.47613
H      1.85536     0.56930    -0.89897
O      1.87832    -1.18373    -1.58921
H      1.40716    -1.92919    -1.17684
O     -2.14146     0.93231    -1.91907
H     -2.73739     0.15906    -1.82868
O     -0.88377     0.25148    -1.96400
H     -0.58667     0.26302    -1.03803
O     -1.88779    -2.17190    -1.84117
H     -1.35037    -1.40380    -2.11477
O     -3.00469    -1.48514    -1.26794
H     -2.71799    -1.34619    -0.34495
O     -2.22468     2.09355     0.52961
H     -2.24559     1.92237    -0.42999
O     -1.07945     2.93934     0.64980
H     -0.53544     2.47532     1.31947
O      1.42200     3.22154    -0.76511
H      0.46598     3.23524    -0.58575
O      1.52299     2.08610    -1.61237
H      1.80479     2.45659    -2.45705
O     -0.82103    -0.43386     0.93786
H     -0.55070    -1.37349     0.97436
O     -2.23850    -0.52076     1.12468
H     -2.43094     0.43350     1.10874
O      2.09069     2.06645     1.67705
H      1.91050     2.62796     0.90750
O      0.77333     1.70610     2.08183
H      0.73770     0.76183     1.84852
