 24
-909.9756303184449
O      0.16367    -2.00248     1.28007
H      0.84552    -1.55643     0.74614
O     -0.79198    -2.42227     0.30341
H     -1.55576    -1.89204     0.58028
O      0.70716    -0.95143    -2.34594
H      0.64184    -0.02535    -2.07289
O     -0.65996    -1.34181    -2.18907
H     -0.61285    -1.90019    -1.39475
O      2.09252    -0.40629     0.32868
H      1.83093     0.52325     0.44739
O      3.17458    -0.32435    -0.59409
H      2.80699    -0.82522    -1.33486
O      0.71974     2.01513     1.39661
H      0.06661     1.43058     1.84048
O     -0.15401     3.00930     0.86728
H      0.23878     3.81509     1.21196
O     -1.89065    -0.03625     1.16994
H     -1.45717     0.42988     0.44098
O     -0.99645     0.16388     2.28200
H     -0.50692    -0.67944     2.23736
O     -0.46813     1.10581    -0.91204
H     -0.45530     1.99020    -0.50430
O     -1.77261     1.02369    -1.48562
H     -1.68527     0.12711    -1.84901
