 28
-1061.6430881717079
O     -0.64661    -1.99394    -0.52964
H      0.24593    -2.37346    -0.51878
O     -0.51195    -0.96777    -1.50588
H     -0.65417    -0.15655    -0.98172
O      2.20145    -2.51559    -0.05708
H      1.98949    -1.84630     0.62724
O      3.24378    -1.81724    -0.74160
H      3.55652    -2.48645    -1.35705
O     -1.49748    -0.36959     2.21251
H     -1.53067     0.59136     2.10033
O     -2.37702    -0.76975     1.14733
H      1.20220     1.05211     1.15678
O      2.08147     0.46382    -1.58544
H      2.51073    -0.33111    -1.20886
O      1.62485     0.00168    -2.85802
H      0.80240    -0.44135    -2.58485
O     -3.15962     2.77216     0.07902
H     -3.47737     3.59490     0.45921
O     -3.04434     1.95737     1.24396
H     -3.30537     1.10145     0.87942
O      1.06343    -0.77942     1.56384
H      0.14136    -0.68876     1.89079
O      1.63768     0.49865     1.82887
H     -1.77124    -1.31037     0.60132
O      0.44011     1.96689    -0.16360
H      0.97019     1.51266    -0.85961
O     -0.85251     1.39098    -0.39710
H     -1.45086     2.14449    -0.24279
