 20
-758.3174049183222
O      1.60911    -1.76919    -0.41327
H      0.75613    -1.84608     0.05366
O      2.31808    -0.99631     0.56070
H      2.14264    -0.09526     0.23063
O     -0.48286    -1.39517     1.14709
H     -1.15403    -0.76277     0.82455
O      0.19701    -0.61979     2.13932
H      1.10848    -0.91137     1.95939
O      0.29302     1.71098     0.77985
H      0.32401     0.93450     1.37090
O      1.25217     1.33301    -0.21150
H      0.66642     1.10164    -0.96298
O     -0.32467     0.62122    -2.19317
H     -1.25737     0.69578    -1.94356
O     -0.19956    -0.76230    -2.52626
H      0.58228    -1.01041    -2.01069
O     -2.44519     0.23743     0.45922
H     -3.13566     0.46768     1.08856
O     -2.21273     1.46770    -0.21781
H     -1.34613     1.71318     0.16376
