 36
-1364.981590609914
O      3.20476    -1.69375     0.18776
H      2.80357    -2.13870    -0.58743
O      4.18999    -0.87606    -0.44153
H      4.91606    -0.97571     0.18016
O      0.26955     2.87739     1.42778
H      0.81384     2.16056     1.81969
O     -0.91916     2.87356     2.23273
H     -1.49733     3.35373     1.62180
O     -0.28051    -0.96596     0.71400
H      0.10448    -1.75107     0.27561
O     -0.24996    -1.31769     2.09911
H     -1.02966    -0.80088     2.36947
O     -2.64521     0.52192     0.65896
H     -2.14872    -0.23041     0.29612
O     -2.22209     0.50341     2.02677
H     -1.73061     1.34363     2.10530
O      0.67062     0.16424    -1.91060
H      0.68170     0.24146    -0.93513
O     -0.71614     0.36238    -2.18431
H     -0.85399     1.28384    -1.83967
O     -2.55558    -2.05013    -1.11338
H     -3.35732    -2.48315    -1.42427
O     -1.71131    -2.15957    -2.25571
H     -1.48873    -1.21989    -2.40392
O     -0.79833     2.70087    -0.97660
H     -0.18326     2.75690    -0.21651
O     -2.04521     2.92807    -0.31062
H     -2.32120     2.01750    -0.08832
O      1.95701     0.66326     0.69455
H      2.50688    -0.14025     0.61633
O      1.62704     0.68461     2.09062
H      1.06263    -0.10317     2.18244
O      1.63763    -2.31906    -1.91729
H      1.34272    -1.40355    -2.10755
O      0.63784    -2.77909    -1.00642
H     -0.15226    -2.82367    -1.57878
