 40
-1516.6365769634842
O      3.13493     0.10485     1.31873
H      2.19660     0.10581     1.59230
O      3.32681    -1.27573     0.99318
H      3.25164    -1.27461     0.02920
O     -1.43054     1.46496    -0.99550
H     -1.98344     1.41232    -0.18628
O     -1.90539     0.32400    -1.72015
H     -1.43983     0.45125    -2.57196
O     -2.45893     1.16208     2.51121
H     -1.70977     0.55441     2.68365
O     -2.83060     0.85125     1.16986
H     -2.87531    -0.12453     1.13157
O      0.49623     0.07038     1.71096
H      0.28961     1.04014     1.66682
O     -0.24890    -0.35616     2.85355
H     -0.34115    -1.29619     2.60230
O      0.17582     2.63677     1.34158
H      0.38728     2.68653     0.39355
O     -1.10613     3.26337     1.38909
H     -1.63395     2.58942     1.85676
O      2.74689     1.18218    -1.24301
H      3.06796     1.30301    -0.33841
O      1.56987     1.99249    -1.23713
H      1.27449     1.88216    -2.15300
O     -0.56417     0.48422    -4.03810
H     -0.57595     1.01888    -4.83722
O      0.83094     0.50688    -3.70543
H      0.84168    -0.18302    -3.01139
O     -0.14330    -2.69325     1.62348
H     -0.71493    -2.57923     0.84254
O      1.07185    -3.16100     1.04450
H      1.71509    -2.53261     1.40735
O      0.74872    -0.83853    -1.45822
H      1.05542    -0.11312    -0.87812
O      1.79892    -1.80258    -1.39552
H      1.37660    -2.49382    -0.86209
O     -3.02577    -1.73454     0.47376
H     -3.72503    -2.06921    -0.09486
O     -1.86427    -1.93278    -0.32782
H     -1.80345    -1.08676    -0.84599
