 24
-909.9713892287291
O     -1.58000    -1.04210     1.99816
H     -2.44625    -1.27304     2.34843
O     -1.23372    -2.19608     1.23697
H     -0.35106    -2.38818     1.59467
O     -1.38426    -0.51026    -1.74179
H     -0.80115     0.10672    -2.22280
O     -0.44075    -1.47338    -1.27445
H     -0.86319    -1.76227    -0.45204
O      1.73708     0.45010    -0.33950
H      0.95167     0.81206     0.12577
O      2.80595     1.07841     0.36755
H      3.12649     1.70859    -0.28671
O     -0.18942     1.62346    -2.81420
H     -0.64788     2.13217    -3.48919
O     -0.01189     2.59632    -1.78282
H     -0.61616     2.26358    -1.09129
O      1.62428    -2.04417     1.10203
H      1.58969    -1.45716     0.32817
O      1.50977    -1.11962     2.18802
H      2.31296    -0.58569     2.10566
O     -0.52201     1.14621     0.89371
H     -0.82904     0.38264     1.41899
O     -1.66837     1.41968     0.08760
H     -1.74658     0.60717    -0.45313
