 24
-909.9822582384464
O     -0.94996    -1.97114    -0.19430
H     -1.11589    -2.91833    -0.24109
O     -1.84624    -1.55727     0.83311
H     -1.18474    -1.26113     1.49352
O     -0.17612    -0.24895    -2.04974
H     -0.41815    -0.86355    -1.33168
O      1.25387    -0.31731    -2.04504
H      1.45418     0.59889    -1.75613
O      2.05673    -1.56671     0.21552
H      1.83265    -1.23494    -0.68129
O      3.32993    -0.96299     0.42787
H      3.88891    -1.74175     0.49102
O     -2.15979     1.66895     0.95224
H     -1.82887     2.24614     0.24636
O     -3.07697     0.85006     0.22120
H     -2.73348    -0.03409     0.41963
O      0.27963    -0.51470     1.99071
H      1.00407    -0.88531     1.45086
O      0.29012     0.85439     1.58760
H     -0.66703     1.04748     1.49920
O      1.03610     1.96353    -0.74671
H      0.93171     1.59735     0.15120
O     -0.33118     2.20054    -1.09861
H     -0.53329     1.35110    -1.53684
