 36
-1364.9686575022638
O     -2.25424     0.62770    -1.73187
H     -2.62340     0.80314    -0.85236
O     -0.97982     0.12997    -1.34038
H     -0.60598    -0.26126    -2.15941
O     -3.42944     0.71357     0.78918
H     -2.76115     0.92740     1.46814
O     -3.86762    -0.57809     1.23848
H     -4.36819    -0.87258     0.47239
O      1.46173     3.37874     3.63858
H      1.73160     4.30251     3.60761
O      0.76858     3.24803     2.39585
H      1.36617     2.66805     1.89425
O      2.15874     1.34794     0.51838
H      2.12917     0.38108     0.64758
O      1.54434     1.46104    -0.76962
H      0.63570     1.17501    -0.56205
O     -1.36475     1.24868     2.39710
H     -0.90157     2.08560     2.55984
O     -0.58510     0.77854     1.29169
H     -0.51756    -0.17228     1.48379
O     -1.70509    -2.07579    -0.11258
H     -1.49309    -1.18535    -0.46396
O     -1.53891    -1.88727     1.30271
H     -2.41143    -1.51638     1.53597
O      2.76486    -0.41454    -2.19580
H      2.38061     0.39961    -1.80012
O      2.56321    -0.16920    -3.59264
H      3.45399    -0.31084    -3.92834
O      1.52052    -2.56588     1.02668
H      0.55703    -2.64943     1.04400
O      1.68208    -1.29402     0.41840
H      1.88964    -1.50403    -0.51070
O      0.25163    -1.56265    -2.95449
H      1.11484    -1.38969    -3.35906
O      0.61898    -2.49895    -1.93108
H     -0.21607    -2.58673    -1.45002
