 24
-909.978513925768
O     -1.64012    -0.30294     0.98552
H     -0.97939    -0.23279     1.70116
O     -1.52053     0.96101     0.33412
H     -1.48497     0.70934    -0.60117
O     -0.58276     0.45646    -2.41227
H      0.22689     0.22689    -1.90159
O     -0.00946     0.86900    -3.64943
H     -0.07688     1.82576    -3.57665
O      1.40182     0.04253    -0.73675
H      1.47055     0.74512    -0.04528
O      1.34181    -1.15687     0.04379
H      0.59186    -1.61972    -0.37338
O     -1.00476    -2.09161    -0.85255
H     -1.46862    -1.58687    -0.15422
O     -1.96836    -2.06656    -1.89860
H     -1.51658    -1.51741    -2.55172
O      1.44336    -0.54431     2.62394
H      1.36273    -0.86711     1.70323
O      0.07311    -0.46731     2.99975
H      0.01854    -1.12166     3.70333
O      1.59451     1.86143     1.14847
H      1.78219     1.39056     1.97441
O      0.36002     2.51609     1.45771
H     -0.28920     1.94904     1.00503
