 40
-1516.6452969843851
O      1.65715     0.96891     2.46464
H      2.20232     1.62325     1.98430
O      2.50684    -0.17781     2.30441
H      1.86004    -0.88731     2.10628
O      3.29243     1.95960     0.63404
H      2.72317     2.19993    -0.11955
O      3.83958     0.71042     0.19541
H      3.54441     0.14444     0.93155
O     -2.48497    -0.62649     0.23640
H     -3.12822    -0.77653    -0.47204
O     -3.23082    -0.92662     1.41639
H     -2.74838    -0.36683     2.03989
O     -0.56120    -0.15096     3.52625
H      0.20284     0.41729     3.29449
O     -1.65156     0.74142     3.31716
H     -2.03518     0.76510     4.19794
O      1.03759     1.96365    -2.45725
H      1.51237     1.10373    -2.41736
O      1.34078     2.47803    -1.15750
H      0.59627     2.08830    -0.65039
O     -0.78211    -1.48087    -1.75072
H     -1.48367    -1.44696    -2.42463
O     -1.01525    -2.72681    -1.09022
H     -1.29010    -2.40952    -0.21749
O     -0.91785     1.43302    -0.46619
H     -1.46395     0.64648    -0.24732
O     -1.45226     1.81002    -1.74063
H     -0.61999     1.87386    -2.26426
O      0.95209    -2.20340     1.56633
H      1.08532    -2.13464     0.60625
O     -0.46914    -2.12401     1.66916
H     -0.56644    -1.45217     2.36731
O      2.45168    -0.19396    -1.91274
H      3.14397     0.14590    -1.31620
O      1.68838    -0.92749    -0.95118
H      0.80581    -0.95797    -1.37468
O     -3.22461    -0.10297    -2.41854
H     -2.62667     0.65884    -2.30364
O     -2.67602    -0.67986    -3.60050
H     -3.45948    -1.07761    -3.98782
