 24
-909.9742273771681
O     -1.69438    -0.77837     1.36611
H     -0.73735    -0.95934     1.23005
O     -2.29891    -1.89102     0.70594
H     -3.23062    -1.67608     0.80658
O     -0.04219    -3.11311    -1.41489
H      0.04252    -3.53127    -2.27619
O     -1.01227    -2.10267    -1.69005
H     -1.47108    -2.07384    -0.83281
O      0.93313     2.07455     1.96308
H      0.22836     1.98161     1.29587
O      1.98893     1.27028     1.44528
H      2.18745     1.70642     0.59784
O     -1.00304     2.06467     0.02433
H     -0.42689     1.76098    -0.70058
O     -2.20187     1.33369    -0.24947
H     -2.13472     0.62675     0.41519
O      0.94158    -1.10321     1.00606
H      1.38913    -0.27448     1.30383
O      1.41153    -1.15138    -0.35020
H      0.95258    -1.94429    -0.69551
O      2.09986     2.04206    -1.11988
H      1.78663     2.89794    -1.42348
O      1.01849     1.19857    -1.52529
H      1.26317     0.34549    -1.10053
