 40
-1516.6392814179699
O      0.66016     2.74366     0.21777
H      0.64809     1.91889     0.75138
O      2.05713     3.02358     0.19399
H      2.21035     3.14643    -0.74609
O      0.79733    -0.29719    -2.87084
H     -0.14902    -0.32468    -3.06047
O      0.89481     0.93006    -2.14449
H      1.51416     0.69039    -1.42895
O     -3.09032     3.27072    -0.07899
H     -2.69594     2.62967    -0.69744
O     -2.16415     3.20289     1.00800
H     -1.31104     3.40358     0.59156
O     -1.58559    -1.97621     2.72488
H     -0.67418    -1.73758     2.94991
O     -1.42857    -3.15032     1.93471
H     -1.27905    -2.77873     1.05332
O     -1.62002     0.18078    -0.97915
H     -2.12150     0.23700    -0.13238
O     -1.57718     1.53078    -1.44963
H     -0.61870     1.59980    -1.63785
O      0.82867    -0.86179     1.79513
H      1.57790    -0.94077     1.18373
O      0.58297     0.54955     1.72095
H     -0.33646     0.59918     2.06769
O      2.62115     0.31439    -0.17927
H      2.87500     1.06701     0.37988
O      3.87573    -0.16942    -0.67707
H      3.80169    -1.08931    -0.38895
O     -2.76188    -0.02365     1.44290
H     -2.54233    -0.86487     1.90387
O     -1.99867     0.87797     2.26207
H     -2.24294     1.75067     1.87895
O      2.28096    -2.47920    -0.41282
H      1.31104    -2.42628    -0.26872
O      2.28779    -2.76941    -1.81517
H      2.12797    -1.89390    -2.19795
O     -0.26450    -2.07980    -0.69303
H     -0.68530    -1.19937    -0.82670
O     -0.67470    -2.79455    -1.85688
H      0.19832    -3.05236    -2.18857
