 24
-909.9708458903286
O     -2.28877    -0.93934     0.56791
H     -1.95152    -1.19306     1.43703
O     -2.64524     0.43782     0.72645
H     -1.83228     0.83029     1.11587
O      1.05499    -1.87881    -1.46489
H      1.61643    -1.15181    -1.15721
O      0.13408    -2.01198    -0.39203
H     -0.60445    -1.42993    -0.65424
O      2.52853     0.72769    -0.95081
H      2.07848     1.26559    -0.27623
O      2.20487     1.45845    -2.13541
H      3.07288     1.77390    -2.40870
O     -0.52171     0.65591    -1.49464
H     -0.00516     0.55731    -2.30455
O     -1.71632     1.30431    -1.94796
H     -2.33965     0.94176    -1.30183
O     -0.12169    -1.75275     2.76284
H      0.42234    -2.30662     3.32976
O      0.87684    -1.10547     1.96593
H      0.70027    -1.51210     1.08102
O     -0.30724     1.32373     1.72426
H      0.23342     0.53547     1.93606
O      0.43061     1.91590     0.64815
H     -0.05130     1.57119    -0.12944
