 32
-1213.3018975917062
O      2.21430     1.46713     2.87245
H      1.68647     1.91338     2.19542
O      1.42221     0.30707     3.10542
H      1.93474    -0.39376     2.67022
O     -2.54639    -0.94419    -0.67136
H     -2.12890    -0.72758     0.18868
O     -2.36804    -2.35635    -0.76667
H     -1.60744    -2.41419    -1.36107
O     -2.23956     1.48311    -1.81338
H     -2.60327     0.64404    -1.46185
O     -1.34774     1.02499    -2.83097
H     -1.01354     0.20008    -2.44454
O      1.80049     1.04385    -2.72440
H      2.17264     1.23075    -3.59242
O      1.07136     2.23757    -2.42976
H      0.15983     1.97000    -2.67229
O     -0.48865     2.83324     0.35594
H     -1.10671     2.37700    -0.23785
O      0.62097     1.93731     0.35810
H      1.08441     2.15541    -0.47024
O      0.54777    -2.07679    -1.40678
H      0.66859    -2.39081    -0.50019
O      0.42131    -0.67526    -1.16452
H      1.14161    -0.29133    -1.69543
O      0.77706    -2.90875     1.48972
H      0.07604    -2.31557     1.83200
O      1.95482    -2.26883     1.98516
H      2.22055    -2.87799     2.67937
O     -1.32603    -0.01909     1.53540
H     -0.51031     0.42104     1.23842
O     -0.87043    -0.95385     2.51518
H     -0.21446    -0.42273     3.00157
