 40
-1516.6449462858154
O      2.34431     2.52450     2.26566
H      2.44806     2.71630     3.20384
O      1.32012     3.44410     1.87913
H      0.54251     2.84941     1.85626
O      1.58516    -1.45744    -1.50933
H      2.03856    -2.25833    -1.19876
O      0.46652    -2.03392    -2.19643
H      0.05989    -1.22643    -2.56617
O     -1.76670     0.38358    -1.96508
H     -2.10422     1.29495    -2.09670
O     -0.57896     0.39917    -2.76848
H     -0.05448     1.09459    -2.32525
O     -0.61293     1.55985     1.69396
H     -0.07550     0.78922     1.39991
O     -1.64548     1.57269     0.71179
H     -1.92831     0.62689     0.71164
O     -2.37456     2.95857    -1.96376
H     -2.40303     3.84511    -2.33713
O     -3.31942     3.03398    -0.88961
H     -2.79538     2.60274    -0.19428
O      0.53857     2.36924    -1.25947
H     -0.02348     2.34748    -0.46791
O      1.79613     1.92824    -0.76133
H      2.27765     2.75692    -0.63149
O      2.27109    -0.28653     1.43763
H      2.30521     0.67363     1.58993
O      0.96531    -0.37520     0.86485
H      1.14526    -0.66895    -0.06600
O     -0.51500    -3.82442     0.43980
H     -0.98596    -3.20688    -0.15122
O     -0.68818    -3.12813     1.69317
H      0.24830    -2.99243     1.92746
O      1.95793    -2.98789     1.54518
H      2.28438    -2.08312     1.43612
O      2.14360    -3.53986     0.23069
H      1.25470    -3.92147     0.10815
O     -1.96635    -1.75764    -0.39691
H     -1.86289    -1.02338    -1.03298
O     -2.09056    -1.01801     0.82800
H     -1.65427    -1.65494     1.42984
