 36
-1364.9758408511855
O      2.72553     1.52501    -1.15675
H      2.93373     1.50098    -0.19997
O      1.65660     0.57565    -1.17239
H      2.12437    -0.24355    -1.43804
O     -0.31182     0.19924     2.01280
H     -1.11558     0.40499     2.52619
O      0.28883     1.49599     1.88559
H     -0.19337     1.85858     1.11021
O     -2.97308     0.52751     2.80926
H     -3.25629    -0.03579     2.07469
O     -3.29843     1.80971     2.27965
H     -3.89162     2.15101     2.95711
O     -0.69079     1.76326    -1.45625
H      0.21066     1.42968    -1.23582
O     -1.28553     2.06506    -0.20074
H     -1.91532     1.33050    -0.09796
O     -1.80428    -0.26020    -2.73638
H     -1.47702     0.58236    -2.35015
O     -0.57847    -0.98173    -2.77580
H     -0.55757    -1.28001    -3.68852
O     -2.51504    -0.65422     0.18809
H     -1.85625    -1.37340     0.07511
O     -3.53784    -0.98921    -0.75073
H     -3.05644    -0.81815    -1.57766
O      2.92744     1.09996     1.47263
H      2.00119     1.24643     1.74784
O      3.12650    -0.26315     1.85420
H      3.36869    -0.66661     1.01186
O      3.10505    -1.64198    -1.67881
H      4.03564    -1.55359    -1.90968
O      3.18183    -2.29941    -0.41258
H      2.24985    -2.21544    -0.12909
O      0.71138    -1.67443     0.36372
H      0.32893    -0.97607     0.94175
O     -0.40432    -2.17078    -0.36905
H     -0.27732    -1.77556    -1.25019
