 20
-758.3091924052541
O     -1.05704    -2.46960     0.58085
H     -1.45852    -1.81536     1.17425
O     -0.29709    -1.61033    -0.26600
H      0.44314    -1.34476     0.31252
O      1.00527     0.21152     2.47149
H      1.47458    -0.26739     3.15942
O      1.55267    -0.39662     1.30038
H      1.67799     0.39472     0.72210
O      0.53672     2.39719    -0.01742
H     -0.24261     1.83534     0.15569
O      1.47462     1.47108    -0.57309
H      0.99613     1.15733    -1.36330
O      0.23011    -0.72491    -2.99823
H     -0.06651    -1.33200    -2.30144
O     -0.17110     0.51311    -2.40700
H     -0.71908     0.92266    -3.08430
O     -1.55918     0.07595     1.63094
H     -0.65263     0.26455     1.93276
O     -1.61190     0.78928     0.38538
H     -1.45127     0.06397    -0.23626
