 32
-1213.3073859159147
O     -1.41529    -1.67269    -0.88465
H     -1.35287    -1.32957    -1.79662
O     -0.13403    -2.30591    -0.76611
H     -0.05988    -2.47948     0.20504
O     -0.43098    -1.98526     2.68921
H     -0.66919    -1.16453     2.22642
O      0.53283    -2.55897     1.79160
H      1.31300    -1.99052     1.93216
O     -0.45942     0.41991    -3.43737
H     -0.70690     0.87311    -2.60002
O     -1.30708    -0.72182    -3.36947
H     -2.05587    -0.45765    -3.91083
O      0.81797     3.22997     2.32403
H      0.55228     4.10683     2.61922
O     -0.33736     2.82919     1.58612
H      0.03206     2.70544     0.68818
O      0.31421     2.00669    -0.90907
H      0.89736     1.21295    -0.97681
O     -0.97692     1.40844    -1.05354
H     -1.06002     0.87737    -0.22977
O      2.00278    -0.47210    -2.54695
H      1.24129    -0.15099    -3.05753
O      1.50378    -0.30671    -1.22984
H      0.93305    -1.10711    -1.10440
O      2.44155    -0.64163     1.46748
H      2.58849    -0.69005     0.51146
O      1.52829     0.46812     1.50638
H      1.95610     1.08840     2.11353
O     -2.65250    -0.30951     1.38193
H     -2.52106    -1.02873     0.74544
O     -1.33054     0.21770     1.30782
H     -1.33036     1.01394     1.86607
