 36
-1364.970430692738
O      2.61741     0.78263     1.10775
H      2.39541     1.58260     0.60668
O      2.87794    -0.13122     0.02724
H      2.21319    -0.82579     0.19603
O     -1.66361    -3.53782    -0.21689
H     -1.90627    -3.00549     0.55660
O     -2.48027    -2.94881    -1.23038
H     -1.81691    -2.69195    -1.88638
O     -0.56835     2.50895     0.78820
H     -0.16637     3.25199     0.29371
O     -1.94123     2.87352     0.93498
H     -2.26481     2.03307     1.29216
O     -1.86223     0.08507     2.01941
H     -0.93547    -0.10841     2.29809
O     -2.28182    -1.13022     1.38749
H     -2.70824    -0.77993     0.59669
O     -0.51684    -2.08892    -3.42423
H     -0.24644    -2.60869    -4.18691
O      0.71966    -1.50968    -3.01628
H      0.90635    -2.02306    -2.19692
O      0.59539     1.37051     3.41196
H      0.23947     1.90904     2.69288
O      0.68703     0.09875     2.77685
H      1.49771     0.19809     2.22127
O      1.78474     2.70503    -0.68757
H      1.24124     2.10766    -1.24308
O      1.03946     3.91207    -0.79377
H      1.72340     4.56894    -0.63618
O      0.13748     0.92671    -1.81578
H      0.36661     0.12131    -2.31702
O     -0.63664     0.36457    -0.73793
H     -0.57902     1.11343    -0.10191
O      0.82624    -2.70379    -0.63510
H      0.00970    -3.21726    -0.45650
O      0.69448    -1.67201     0.34778
H      0.11466    -1.01095    -0.10080
