 24
-909.9774281309501
O     -0.83502    -1.91131    -1.11480
H     -0.51278    -1.05005    -1.43298
O      0.37488    -2.63468    -0.87763
H      0.45842    -2.56582     0.08972
O     -1.54061     0.27420     1.14042
H     -0.63708     0.33025     1.49140
O     -1.81504    -1.12584     1.24661
H     -1.63372    -1.43969     0.33805
O      1.17519     0.37959    -1.36618
H      1.17812     1.08867    -0.69472
O      2.16648    -0.48187    -0.77761
H      1.92606    -1.32665    -1.18501
O     -1.68920     0.85349    -1.44337
H     -1.73389     0.77655    -0.46920
O     -1.21761     2.19410    -1.58854
H     -0.78300     2.15215    -2.44735
O      0.79028    -2.04849     1.79679
H     -0.14393    -1.96155     2.03876
O      1.13285    -0.65416     1.70714
H      1.58323    -0.62114     0.83859
O      0.01401     2.93282     0.69845
H     -0.42049     2.71490    -0.14915
O      1.21788     2.18172     0.52469
H      1.63251     2.24473     1.39145
