 24
-909.971724749838
O     -1.74372    -0.12536    -1.11743
H     -2.34873     0.30198    -0.48232
O     -1.43633    -1.36135    -0.45710
H     -0.87299    -1.02502     0.26045
O      0.63709    -2.47152    -1.85605
H     -0.23089    -2.26554    -1.47141
O      1.47770    -1.57524    -1.12739
H      1.32347    -0.73859    -1.60805
O      3.24188    -0.24515     0.75635
H      2.66263    -0.87151     0.28645
O      3.65204     0.59235    -0.32444
H      4.55206     0.29472    -0.50025
O     -4.06825     0.60865     1.56532
H     -4.71072     1.32209     1.53092
O     -2.96708     1.21984     0.90172
H     -2.26197     1.12811     1.56520
O     -0.64886     0.81705     2.24124
H     -0.40172     0.41519     3.07616
O      0.05376    -0.02131     1.33065
H      0.48849     0.66053     0.76812
O      1.14734     1.48621    -0.52591
H      2.10585     1.29229    -0.59404
O      0.66107     0.89521    -1.74045
H     -0.25774     0.64737    -1.49698
