 32
-1213.3113109984
O      2.03053     2.06234     0.28023
H      2.13526     1.22469    -0.21373
O      1.14698     2.79327    -0.57433
H      0.28615     2.62597    -0.13768
O     -0.96490    -0.72272    -0.62547
H     -0.77202     0.05019    -1.20337
O     -1.34747    -1.71805    -1.56748
H     -0.76398    -2.42632    -1.26126
O      0.78220     1.41507    -2.81398
H      1.10130     2.04241    -2.12591
O     -0.55466     1.22420    -2.34125
H     -1.08390     1.79408    -2.90660
O     -0.93679     1.96355     0.82005
H     -0.61273     1.84302     1.72854
O     -2.20887     2.59161     0.97501
H     -2.77704     1.80847     1.00637
O      1.73462    -1.17704    -1.76207
H      1.34573    -0.48688    -2.32146
O      2.11013    -0.43059    -0.60402
H      1.56091    -0.83572     0.08594
O      0.33279    -3.24451     0.20130
H      0.41390    -2.62221     0.93958
O      1.67560    -3.70146     0.01243
H      1.92297    -3.21407    -0.78587
O      0.48487    -0.63128     1.91328
H     -0.48396    -0.58497     2.05774
O      0.92326     0.57095     2.54494
H      1.50013     0.94624     1.86361
O     -2.84984    -0.24819     1.11970
H     -2.16318    -0.48043     0.44581
O     -2.16842    -0.59366     2.32763
H     -2.68680    -1.33989     2.64688
