 24
-909.9750346122918
O     -2.05617    -1.28229    -0.00528
H     -1.98547    -1.04990     0.94625
O     -0.75579    -0.85213    -0.42493
H     -0.60404    -1.36421    -1.24896
O     -0.01530    -1.92101    -2.72457
H     -0.10115    -2.68294    -3.30497
O      1.25510    -2.14498    -2.11467
H      1.59171    -1.23723    -2.11355
O      0.98648     0.60905     2.10444
H      0.98767     1.34204     1.47324
O      1.63160    -0.45544     1.39863
H      0.89731    -0.83028     0.88741
O     -1.52771    -0.31032     2.41329
H     -0.61675     0.04447     2.45371
O     -2.32060     0.86673     2.52864
H     -2.33140     1.18665     1.61531
O     -1.46813     1.65161    -0.22906
H     -1.20765     0.72207    -0.41410
O     -0.20414     2.32034    -0.30717
H     -0.44273     3.14091    -0.75167
O      2.76530     0.97123    -0.63955
H      2.64149     0.33939     0.08665
O      1.59939     0.68214    -1.42463
H      0.95298     1.30657    -1.04893
