 24
-909.9784263889354
O     -2.51932    -1.87308     0.31879
H     -2.59062    -1.12631    -0.29948
O     -2.23755    -1.16665     1.52601
H     -2.97347    -1.41254     2.09519
O      0.14224    -1.52758    -1.34785
H      0.40504    -1.66955    -0.41918
O      0.48909    -0.14403    -1.51363
H     -0.35662     0.25364    -1.80568
O      2.81425     0.68454    -0.57046
H      2.05730     0.17924    -0.94490
O      3.29927    -0.22083     0.41843
H      4.09814    -0.56434     0.00552
O     -2.28869     0.80739    -0.77453
H     -1.61232     1.12234    -0.13988
O     -1.76983     1.26366    -2.02431
H     -1.62130     2.20509    -1.87531
O      0.38904    -0.71016     1.97249
H     -0.52629    -0.97923     1.76812
O      1.13530    -1.63266     1.17543
H      1.96196    -1.13503     1.04828
O     -0.31268     1.81278     0.70989
H      0.26999     1.18363     1.16474
O      0.55273     2.66907    -0.02597
H      1.32595     2.11221    -0.19465
