 36
-1364.978179760384
O      3.38688     0.51812    -1.29830
H      3.54355     0.51470    -0.34494
O      3.18766    -0.88047    -1.54678
H      2.26175    -0.86030    -1.86250
O     -2.27148    -2.30858     0.21245
H     -3.01656    -1.88781     0.67656
O     -2.49635    -1.89943    -1.13841
H     -1.60156    -2.02980    -1.51217
O      1.09061    -1.90706     0.58182
H      1.79012    -1.36081     0.98688
O     -0.03704    -1.45783     1.34419
H     -0.78407    -1.90741     0.88695
O      0.09992    -1.96138    -1.85425
H      0.56225    -2.16621    -1.01643
O      0.57406    -0.62761    -2.01897
H     -0.16978    -0.08186    -1.68906
O     -1.88556     1.99241    -0.63724
H     -1.41803     1.86107     0.21142
O     -1.59368     0.74850    -1.26397
H     -2.41047     0.22978    -1.17467
O     -3.57690     0.26205     1.16195
H     -2.79800     0.58687     1.63628
O     -3.88934    -0.90783     1.92404
H     -4.81559    -0.75663     2.13790
O      0.65466     3.29623    -1.71694
H     -0.28128     3.06227    -1.78440
O      1.10601     2.21875    -0.89935
H      1.76369     1.76229    -1.45214
O      2.56527    -0.14316     2.00896
H      1.93295     0.59104     2.13365
O      3.67854     0.54412     1.44885
H      4.40656     0.16816     1.95194
O     -0.65441     1.08915     1.56984
H     -0.41804     0.14326     1.43563
O      0.63452     1.69515     1.66566
H      0.80616     1.94877     0.73046
