 32
-1213.3099951897134
O      0.33476    -0.09572     2.38248
H      1.10789     0.03787     1.77604
O      0.17878     1.20566     2.94478
H      0.55618     1.09235     3.82356
O      2.23373    -1.02732    -1.55832
H      1.82572    -1.84170    -1.88582
O      1.47796    -0.03653    -2.29137
H      1.72362     0.75306    -1.77692
O     -1.49301    -0.32292    -0.02541
H     -2.02976     0.12117     0.65718
O     -2.47086    -0.87587    -0.91225
H     -1.88551    -1.13339    -1.65802
O      0.04407     2.70840     0.28405
H     -0.80950     2.78924     0.75653
O     -0.37496     2.28732    -1.01088
H     -0.60378     1.35774    -0.84788
O      2.28403     1.35678    -0.13119
H      1.50786     1.84152     0.21612
O      2.41138     0.26052     0.78532
H      2.52068    -0.46535     0.14358
O     -0.70844    -1.49581    -2.83852
H     -0.02759    -0.79710    -2.82007
O      0.11161    -2.61864    -2.48266
H     -0.16558    -2.77619    -1.56237
O      1.01164    -2.53655     0.79011
H      0.85104    -2.87412     1.67712
O     -0.27226    -2.64476     0.18417
H     -0.64633    -1.73985     0.27638
O     -2.37978     1.38296     2.14186
H     -1.48425     1.34785     2.52790
O     -2.33840     2.68339     1.54068
H     -3.22371     2.75331     1.16900
