 32
-1213.304555264333
O      1.62780    -1.65551     2.61075
H      1.69379    -0.67711     2.50535
O      0.24091    -1.78883     2.91759
H      0.24869    -1.90834     3.87331
O     -1.45018    -1.74140    -3.62217
H     -1.97838    -2.37115    -4.12338
O     -0.78221    -2.61233    -2.69913
H     -1.30556    -2.45172    -1.88338
O     -3.12548    -0.66098    -1.31425
H     -2.67512    -0.61126    -2.16956
O     -2.38466    -1.72541    -0.70157
H     -2.09679    -1.31208     0.13874
O     -0.91703     1.45022    -1.39444
H     -1.15022     2.31830    -1.73518
O      0.48359     1.58198    -1.19391
H      0.77187     0.64242    -1.17465
O      1.07883     3.79196     0.16324
H      0.89757     2.96181    -0.31171
O      2.44386     3.52758     0.51600
H      2.54771     4.09828     1.28293
O      1.15402    -1.01795    -1.25229
H      0.90993    -1.58478    -2.00147
O      0.65471    -1.79205    -0.15344
H      1.41211    -1.81075     0.44949
O      2.30990     0.85218     0.97735
H      2.49899     1.79892     0.84423
O      1.44469     0.91914     2.11184
H      0.55097     0.98469     1.70803
O     -1.06787     0.84348     1.20764
H     -1.21062     0.90724     0.24278
O     -1.60023    -0.44804     1.52594
H     -0.85394    -0.87168     1.99571
