 24
-909.9719722931229
O     -2.20700    -2.05224     0.10333
H     -1.99233    -1.50041    -0.67149
O     -1.56626    -1.33573     1.15585
H     -2.06648    -0.50252     1.19132
O      0.79964    -2.07816     0.19718
H     -0.02622    -1.90441     0.70039
O      1.78665    -1.61219     1.11561
H      2.26687    -2.42282     1.30829
O      3.70078     0.35573    -0.86174
H      4.61756     0.60245    -0.70805
O      3.11345     0.68009     0.39926
H      2.63446    -0.14184     0.60099
O     -2.38508     1.36521     0.91256
H     -1.42467     1.54171     0.98560
O     -2.56936     1.74335    -0.45550
H     -3.42919     2.16894    -0.41626
O     -1.54997    -0.29773    -1.87483
H     -1.87058     0.52444    -1.46071
O     -0.13269    -0.11904    -1.77570
H      0.15199    -0.97611    -1.42178
O      0.21832     1.15911     0.53170
H      0.19546     0.74183    -0.36040
O      0.79669     2.42716     0.24221
H      1.73092     2.21817     0.38621
