 36
-1364.9695007517014
O      2.14398     0.93342    -0.67865
H      2.52875     1.61778    -0.08469
O      2.65926    -0.27880    -0.12254
H      2.37018    -0.91800    -0.80533
O     -0.65170    -0.65010    -0.99133
H     -0.32214    -1.50098    -1.33431
O     -0.17916     0.31333    -1.93506
H      0.62831     0.62169    -1.48119
O      1.75039    -2.13430    -1.83687
H      1.65442    -2.22963    -2.79039
O      2.29424    -3.39801    -1.43617
H      1.58446    -3.68776    -0.83634
O      0.16375    -3.44041     0.32458
H      0.18410    -2.58533     0.81101
O     -0.99693    -3.31976    -0.49592
H     -1.63612    -2.89295     0.09072
O     -3.44075     1.52244    -1.79587
H     -3.55922     2.43799    -2.05828
O     -2.29808     1.63503    -0.95774
H     -1.57225     1.23724    -1.48959
O     -2.51588    -0.22272     1.38153
H     -2.51791     0.29210     0.55762
O     -3.12332    -1.43040     0.93586
H     -3.95023    -1.42630     1.42716
O      1.95455     3.93715     0.64295
H      1.15596     3.36952     0.70731
O      2.99316     2.95873     0.79730
H      3.28654     3.10692     1.70237
O     -0.11130     2.22994     0.77596
H      0.12356     1.38618     1.22462
O     -1.23522     2.66519     1.53819
H     -1.89192     2.64041     0.82906
O     -0.03509    -1.20872     1.76171
H     -0.92414    -0.79613     1.75982
O      0.80456    -0.04972     1.78253
H      1.50145    -0.25168     1.11627
