 36
-1364.9707658831035
O      1.78589    -0.95524     2.32622
H      2.03948    -0.86270     1.38556
O      2.24480     0.29606     2.87032
H      1.39486     0.63981     3.20476
O      0.28015    -1.84849    -1.46950
H     -0.51879    -1.65658    -2.00137
O     -0.17847    -1.75349    -0.11592
H     -1.16084    -1.84809    -0.16672
O      3.09313     1.88511     0.87504
H      2.93671     1.32072     1.66564
O      3.75309     3.01273     1.43038
H      4.66940     2.82991     1.20287
O      2.33116    -0.61615    -0.26494
H      1.88582    -1.10115    -0.98592
O      3.68224    -0.49580    -0.70739
H      3.78310     0.45423    -0.56295
O     -2.94623     1.68112    -2.53858
H     -3.78382     2.14686    -2.48246
O     -2.90355     1.09477    -1.23605
H     -1.95649     1.21222    -0.99776
O     -0.83432    -0.60264     2.54188
H      0.02447    -1.05456     2.42619
O     -0.38839     0.71751     2.86522
H     -0.35685     1.13539     1.98272
O     -1.92203    -1.62505    -2.98195
H     -2.26786    -2.33650    -3.53186
O     -1.78514    -0.55015    -3.90651
H     -2.37652     0.09809    -3.49767
O      0.12264     1.74419     0.46513
H      1.08052     1.78228     0.31474
O     -0.30899     0.89925    -0.60133
H     -0.13405    -0.02134    -0.29459
O     -3.19072    -1.03665     1.14596
H     -2.33867    -0.89763     1.59359
O     -2.77539    -1.40347    -0.17060
H     -3.03384    -0.61242    -0.67498
