 36
-1364.9773849097742
O      1.45098     0.67360    -1.64055
H      0.92959     1.50411    -1.54268
O      2.35413     0.74519    -0.53535
H      2.65967    -0.17964    -0.47244
O     -3.52130    -0.73706     0.42233
H     -2.83986    -1.37538     0.67688
O     -2.80204     0.00461    -0.55737
H     -2.84639     0.92443    -0.21677
O     -1.20065    -0.66956    -2.56966
H     -1.81908    -0.49740    -1.83068
O     -0.16992    -1.38837    -1.89584
H      0.50843    -0.68152    -1.78812
O     -0.26345     2.70341    -1.72217
H     -0.89204     3.17617    -1.15552
O     -1.02589     2.41932    -2.89221
H     -1.04153     1.45123    -2.88073
O      3.15055    -1.84044    -0.17479
H      3.42593    -2.09409     0.71688
O      1.99371    -2.67204    -0.31508
H      2.06798    -2.95970    -1.23358
O      0.94892     1.27182     1.61435
H      1.60546     1.22951     0.88844
O     -0.21449     1.03550     0.81406
H     -0.33292     0.05967     0.91116
O     -1.80544     3.13658     0.76465
H     -1.22042     2.35680     0.89990
O     -3.03849     2.47803     0.47067
H     -3.54119     2.59549     1.28261
O      2.66935    -0.70738     3.04130
H      1.87509    -0.21950     2.76389
O      2.35262    -2.02972     2.61284
H      2.15212    -2.47841     3.44162
O     -0.95779    -2.34930     0.45067
H     -0.68559    -2.01508    -0.43599
O     -0.16870    -1.53865     1.32194
H      0.68975    -1.99724     1.33235
