 36
-1364.97526102073
O      1.15747     2.04867     2.43696
H      1.69222     2.42295     1.72037
O      0.44803     1.07139     1.66847
H      0.33960     0.32208     2.28197
O     -0.16538    -1.49736     2.87389
H      0.22612    -2.01461     2.13164
O     -1.55170    -1.60856     2.56948
H     -1.81572    -2.41470     3.02470
O      2.26876     2.13181    -0.27472
H      1.65983     2.05743    -1.03709
O      2.76084     0.79803    -0.13463
H      2.07051     0.37002     0.41072
O     -0.92783     2.91921     0.32812
H     -0.41254     2.26644     0.84241
O     -1.67894     2.07854    -0.54803
H     -2.02487     1.39335     0.04926
O      0.36829     1.91687    -2.18459
H     -0.45501     2.04442    -1.65134
O      0.16222     0.59288    -2.69680
H      1.07573     0.31937    -2.88555
O     -4.21222    -0.99925     0.75036
H     -4.92181    -0.37705     0.56507
O     -3.13500    -0.09448     0.97325
H     -2.52985    -0.64989     1.49913
O      2.76076    -0.40486    -2.46782
H      2.90561     0.03365    -1.59516
O      2.56770    -1.75686    -2.05555
H      3.38101    -2.17189    -2.35975
O     -1.03297    -0.95458    -0.84202
H     -0.71368    -0.36095    -1.56570
O     -2.15695    -1.64212    -1.40345
H     -2.85196    -1.26559    -0.84750
O      1.65472    -1.72743     0.47075
H      1.95514    -1.87186    -0.44624
O      0.50658    -2.57265     0.54677
H     -0.15265    -2.06823     0.00686
