 32
-1213.3036549432322
O      0.40187     0.21837     2.77711
H      0.85649    -0.57439     2.45047
O      0.43216     1.02593     1.60671
H     -0.49401     0.99267     1.29413
O     -1.23167    -1.41494    -1.12968
H     -0.49707    -1.74625    -1.68162
O     -1.00948    -2.12518     0.09881
H     -1.59262    -1.62099     0.69996
O     -2.42988     1.40301    -1.11086
H     -2.02745     0.51988    -1.07431
O     -1.85486     2.01229     0.04348
H     -1.32989     2.73538    -0.32587
O      0.62597     0.95104    -1.41394
H      0.78621     1.86434    -1.09980
O      1.92228     0.36750    -1.27974
H      1.88299     0.00567    -0.37755
O      1.01621     3.44365    -0.50938
H      1.85605     3.87149    -0.70945
O      0.94783     3.55966     0.91564
H      0.92697     2.61758     1.17275
O      2.02877    -2.14810    -2.25940
H      1.95074    -1.19298    -2.04733
O      0.70687    -2.46897    -2.68868
H      0.79276    -2.49646    -3.64655
O      2.17986    -2.92319     0.83943
H      2.34499    -3.09283    -0.09654
O      1.52925    -1.66220     0.77840
H      0.60976    -1.89222     0.49805
O     -2.14692    -0.37680     1.77001
H     -1.94749    -0.31785     2.71507
O     -3.53353    -0.03235     1.68205
H     -3.45729     0.82726     1.24571
