 20
-758.3035161451253
O     -1.52403    -1.67952     1.21498
H     -2.19296    -1.04677     0.90357
O     -0.52909    -1.54226     0.18792
H      0.27936    -1.62329     0.71437
O      1.85964    -0.52081     1.45034
H      1.42603     0.28953     1.11040
O      2.72934    -0.82801     0.36293
H      3.57330    -0.48174     0.66847
O     -0.55711     1.00905    -0.48398
H     -0.49648     0.03863    -0.32932
O      0.68892     1.46225     0.05755
H      1.22327     1.42622    -0.76078
O      1.73451     0.93419    -2.29569
H      0.98470     0.85883    -2.89213
O      2.23737    -0.40289    -2.29200
H      2.29079    -0.56463    -1.33773
O     -2.97837     1.29131     1.14292
H     -2.20143     1.41212     0.57773
O     -3.48858     0.08121     0.57269
H     -4.33150    -0.00122     1.02791
