 32
-1213.3134330132298
O      1.72646     1.33291     0.42317
H      1.90500     1.12940    -0.52051
O      1.24593     2.68015     0.35418
H      0.92541     2.76676     1.27231
O     -0.87462    -2.05006    -1.40039
H     -0.23301    -1.48064    -1.87111
O     -0.07156    -2.59849    -0.35616
H     -0.02447    -1.86012     0.28978
O     -1.22216     2.57348    -0.87570
H     -0.34173     2.68480    -0.47897
O     -1.17980     1.20103    -1.27685
H     -1.80599     0.77510    -0.67192
O     -0.95110     3.32560     2.94115
H     -0.71732     3.62514     3.82415
O      0.04662     2.33120     2.72801
H     -0.49291     1.53562     2.55652
O      0.71170    -0.17204    -2.41578
H      0.12922     0.51864    -2.02884
O      2.00638     0.21264    -1.95413
H      2.41997    -0.65618    -1.78577
O      3.00842    -2.14902    -1.06870
H      3.88239    -2.54647    -1.11276
O      2.20218    -3.17774    -1.65975
H      1.39168    -3.08557    -1.11690
O     -1.05181     0.00954     1.85245
H     -1.69951    -0.69787     1.68278
O      0.15537    -0.59758     1.37305
H      0.65519     0.16853     1.00784
O     -2.88630    -0.89511    -0.11777
H     -2.25415    -1.46031    -0.60965
O     -3.02650    -1.66217     1.07450
H     -3.96918    -1.57964     1.23559
