 20
-758.300374778212
O     -1.83972    -0.97362     2.18260
H     -1.24100    -0.39795     2.68358
O     -2.36179    -0.02216     1.25256
H     -3.30969    -0.09998     1.39917
O      1.30061     0.61595     0.25723
H      0.87920    -0.08191    -0.28857
O      2.63560     0.12787     0.45127
H      2.59493    -0.11851     1.38515
O      0.33903     0.90504     2.75502
H      0.59959     0.89732     1.80674
O      1.52000     0.37283     3.37206
H      1.90019     1.17039     3.75450
O     -0.72446     0.48288    -4.03792
H     -0.99098     0.63817    -3.11900
O      0.20893    -0.59204    -3.84796
H      1.04733    -0.16849    -4.06154
O     -0.16729    -1.12369    -1.20969
H     -0.02090    -1.17330    -2.17145
O     -1.12538    -0.05404    -1.18417
H     -1.51773    -0.16821    -0.30181
