 32
-1213.3134524168602
O      1.82258     1.35339    -0.81746
H      1.63318     0.70808    -1.53713
O      2.66482     0.60759     0.05857
H      2.11571    -0.16327     0.27667
O      0.14085    -2.22345     1.25852
H      0.12454    -2.85269     1.98886
O      1.04615    -1.22635     1.71426
H      0.40952    -0.57156     2.08027
O      1.10721    -0.59370    -2.51363
H      1.03849    -1.47633    -2.09508
O     -0.24595    -0.45130    -2.96943
H     -0.55351     0.25964    -2.37150
O      2.17515     1.36484     3.25556
H      2.51688     2.09029     3.78523
O      1.71441     2.07664     2.11193
H      2.25267     1.68369     1.39166
O      0.14801    -2.74812    -1.36273
H      0.12206    -2.58418    -0.40278
O     -1.23103    -2.57636    -1.71702
H     -1.13428    -1.89167    -2.40667
O     -1.04098     1.29550    -1.13299
H     -0.93791     1.26953    -0.14731
O     -0.85121     2.67393    -1.40298
H      0.05248     2.79192    -1.07695
O     -0.85241     1.52178     1.49416
H      0.03053     1.77820     1.84007
O     -1.08631     0.28092     2.17337
H     -1.69361    -0.16848     1.54991
O     -2.40610    -1.02763     0.19727
H     -2.09066    -1.72079    -0.42022
O     -3.44956    -0.39777    -0.54373
H     -2.99378     0.38897    -0.87399
