 32
-1213.3108695658084
O      1.23002     0.34166     2.45706
H      1.56115    -0.56437     2.33788
O      2.41273     1.13563     2.49954
H      2.60530     1.20660     1.55325
O     -1.52087    -1.93159    -1.94046
H     -1.85644    -1.23521    -1.33673
O     -1.24515    -3.01813    -1.05600
H     -0.36669    -2.74400    -0.71869
O     -1.41475    -1.20253     2.28172
H     -1.75454    -1.24934     3.18079
O     -1.38321     0.19736     2.03291
H     -0.42763     0.38684     2.16498
O      0.22140     2.79953     1.07979
H      0.45972     3.17550     1.93440
O     -1.19673     3.04546     1.02996
H     -1.38278     2.56703     0.20410
O      2.46918     0.89064    -1.42499
H      2.07110     0.24040    -2.02251
O      1.67108     0.66653    -0.27055
H      1.14016     1.47848    -0.18506
O     -1.31932     1.29623    -1.04692
H     -0.92763     0.89470    -1.85127
O     -2.14403     0.24018    -0.53704
H     -1.94239     0.28090     0.42136
O      0.91883    -1.85402    -0.13219
H      1.14132    -0.89597    -0.13767
O      0.86770    -2.15786     1.25620
H     -0.05765    -1.94338     1.46394
O     -0.20819     0.33384    -3.29803
H     -0.68088     0.09577    -4.10209
O      0.58853    -0.82571    -3.02582
H     -0.09892    -1.40947    -2.60968
