 28
-1061.6444070305863
O     -3.07238    -0.41698     0.28053
H     -2.69492    -1.16742     0.75706
O     -2.38869     0.67485     0.89931
H     -1.71163     0.91352     0.23475
O     -0.58335    -1.96107     0.54374
H     -0.87014    -2.01431    -0.39272
O      0.58062    -2.77664     0.53846
H      1.21109    -2.17958     0.08104
O      0.81723    -0.35631     2.12486
H      0.14682    -0.87592     1.62746
O      0.32587     0.98493     2.05659
H      2.15760    -0.29723     1.01978
O      1.84310     2.45374    -0.05243
H      2.39788     1.65801     0.06460
O      2.23813     3.28630     1.03046
H      2.62974     4.02484     0.55510
O     -1.65537    -2.06954    -1.88936
H     -2.26980    -2.67679    -2.31514
O     -2.20233    -0.79134    -2.21003
H     -2.62503    -0.56843    -1.35099
O      1.92584    -0.87897    -0.74541
H      1.28208    -0.21996    -1.08024
O      2.68512    -0.13817     0.21146
H     -0.14530     1.08780     2.89018
O     -0.53239     1.50737    -0.84991
H      0.25014     1.92843    -0.43740
O      0.10951     0.73468    -1.87284
H     -0.65965     0.31590    -2.29016
