 36
-1364.9826997772868
O      2.29908     0.98449     1.33922
H      2.62576     1.71401     0.76737
O      2.53314    -0.15708     0.53544
H      1.99092     0.03404    -0.24701
O     -1.88689    -0.44401    -1.95965
H     -1.95016    -0.10806    -1.05206
O     -1.78746    -1.84824    -1.72228
H     -0.84850    -2.03076    -1.94997
O     -2.66829    -2.08113     1.36139
H     -2.76449    -1.16189     1.65332
O     -3.59484    -2.16692     0.27250
H     -2.98132    -2.18041    -0.48402
O      1.58009    -2.60375    -1.28120
H      0.89347    -2.81798    -0.62437
O      0.75088    -2.23947    -2.38920
H      1.09113    -1.36333    -2.62152
O     -1.31111     0.46811     0.80944
H     -0.67974    -0.25666     1.03960
O     -1.96371     0.68661     2.05457
H     -1.30417     1.27037     2.48119
O     -0.16771     2.73132     1.15459
H     -0.57297     1.95453     0.71067
O      0.18681     2.16926     2.41508
H      0.92879     1.59176     2.15137
O      0.46405     0.61709    -2.73192
H     -0.46376     0.31998    -2.67363
O      0.62872     1.14973    -1.41067
H      0.82692     2.08658    -1.57724
O      1.69905     3.70158    -0.58585
H      1.12208     3.53269     0.18287
O      2.90820     3.08317    -0.15933
H      3.48277     3.83678     0.01187
O      0.24415    -1.56275     1.49352
H      1.20795    -1.56364     1.35809
O     -0.18748    -2.71127     0.75007
H     -1.15879    -2.63377     0.90792
