 32
-1213.3140414346406
O      2.97663     0.67880     0.91923
H      3.08388     0.49836    -0.03620
O      2.21987     1.88651     0.82736
H      1.32980     1.60536     1.11920
O      0.29514    -1.03724    -1.20394
H     -0.29903    -1.02708    -0.43022
O     -0.61995    -1.09883    -2.30240
H     -0.76210    -0.14235    -2.46020
O     -0.79720     1.59730    -2.32633
H      0.14042     1.84149    -2.17625
O     -1.39362     1.94708    -1.07182
H     -2.19377     1.37823    -1.06488
O     -0.34789     1.40525     1.29532
H     -0.71577     1.71698     0.44079
O     -0.86834     0.07423     1.31129
H     -0.29486    -0.38244     1.96297
O      1.81597     1.91145    -1.78285
H      1.96950     2.23120    -0.87291
O      2.34297     0.58451    -1.64526
H      1.53133     0.03815    -1.53204
O     -0.10269    -3.67754     0.72684
H      0.63831    -3.06110     0.66934
O     -1.18697    -2.80562     0.39797
H     -1.45453    -3.12592    -0.46980
O      0.86896    -1.25270     2.83985
H      0.73002    -2.14061     3.18436
O      1.59604    -1.53509     1.64245
H      2.12818    -0.72104     1.54063
O     -3.40242     0.75659     0.73820
H     -2.56602     0.35296     1.03070
O     -3.43079     0.30273    -0.61856
H     -4.37619     0.28391    -0.79796
