 20
-758.3032245394297
O     -1.57794    -1.10592     1.03836
H     -2.04183    -0.83528     0.22959
O     -1.43724     0.16886     1.69431
H     -0.49707     0.35390     1.53637
O     -0.17633     0.26192    -1.43051
H      0.75169     0.18969    -1.67396
O     -0.21334     1.59434    -0.90496
H     -1.16565     1.75577    -0.93158
O      1.32745    -1.48159     0.67500
H      0.36293    -1.56706     0.61878
O      1.45121    -0.16394     1.23017
H      1.90421     0.29614     0.50904
O      3.42141     0.30939    -0.79931
H      4.24615     0.40995    -0.31364
O      3.51201    -1.02960    -1.29489
H      2.93538    -1.48948    -0.66346
O     -3.03690     1.48417     0.01811
H     -2.52070     1.16848     0.78714
O     -3.29816     0.22618    -0.61919
H     -4.20906     0.05770    -0.35532
