 36
-1364.9719540247215
O      0.25265     2.97376     2.77284
H     -0.02513     3.80469     3.17012
O     -0.41213     3.04722     1.51822
H     -0.93316     2.21849     1.52193
O     -0.29093    -0.90596     3.28965
H      0.45558    -0.30686     3.14653
O      0.21098    -2.05695     2.59757
H     -0.58376    -2.36378     2.12146
O      2.34459    -0.66658     1.12771
H      1.92217    -1.46992     1.46170
O      1.28268     0.26547     1.37222
H      1.29320     0.81734     0.55676
O      1.25759     3.11626    -0.59759
H      0.70199     3.19937     0.20261
O      1.14822     1.71226    -0.82027
H      0.26395     1.64744    -1.25318
O     -1.23931     0.37653    -2.90317
H     -0.38415     0.60342    -3.31049
O     -1.28183     1.31796    -1.82376
H     -1.53423     0.75983    -1.05456
O     -1.54009    -0.12940     0.38210
H     -0.63709    -0.49244     0.48174
O     -1.69254     0.66324     1.55165
H     -1.37130     0.05902     2.25677
O      2.15687     0.06853    -2.89738
H      2.30350     0.77298    -2.24610
O      1.29091     0.74864    -3.80224
H      1.70332     0.54912    -4.64719
O      0.56101    -1.39396    -1.07762
H      1.21407    -1.12543    -1.74455
O     -0.46491    -2.00390    -1.87812
H     -0.94028    -1.21108    -2.20053
O     -1.84236    -3.01447     1.18492
H     -2.70004    -3.37508     1.43383
O     -1.35166    -3.96975     0.24508
H     -1.16131    -3.38103    -0.50118
