 36
-1364.9775100043914
O      0.39564     2.24685     1.45426
H     -0.42343     2.70627     1.18725
O     -0.04667     1.39314     2.51135
H      0.70735     0.77658     2.56012
O     -2.41120     0.20862    -1.13171
H     -1.77163     0.93378    -1.03669
O     -3.36874     0.46990    -0.10825
H     -2.95551     0.03931     0.66783
O      1.56185    -0.64234     2.12494
H      1.00224    -1.38685     2.39181
O      2.88762    -1.16127     2.21315
H      3.09119    -1.27650     1.27237
O      0.17850     1.47263    -1.48183
H      0.48494     1.07844    -2.31470
O      0.94005     0.65220    -0.58251
H      1.00117     1.24467     0.20189
O     -1.15957    -1.58381     2.26173
H     -1.03043    -1.91848     1.36381
O     -1.96385    -0.43157     2.00485
H     -1.35044     0.30078     2.22822
O     -1.81626     3.24456     0.23684
H     -1.88702     4.11595    -0.16610
O     -3.04787     3.11500     0.94342
H     -3.43942     2.36710     0.46401
O      2.24366    -0.73167    -3.22283
H      2.40513    -1.29489    -3.98769
O      0.86440    -0.42065    -3.34248
H      0.43287    -1.08379    -2.76370
O     -0.64622    -1.75359    -1.55540
H     -1.36432    -1.11529    -1.35593
O      0.08200    -1.81286    -0.33260
H      0.44851    -0.89681    -0.30495
O      3.00862    -1.63002    -0.79475
H      2.73625    -1.22019    -1.63354
O      2.44738    -2.94742    -0.91254
H      1.53935    -2.78004    -0.60870
