 32
-1213.3022593885648
O      1.40842    -2.53513    -1.95117
H      2.01726    -2.64369    -1.21353
O      0.72123    -1.37381    -1.47636
H     -0.23283    -1.62446    -1.54062
O     -0.54451    -0.95977     2.54348
H     -1.19387    -0.33567     2.19107
O     -0.44099    -1.87380     1.45150
H      0.50498    -1.83202     1.24440
O     -2.32968    -1.08079    -0.30034
H     -1.68624    -1.52694     0.28422
O     -1.91338    -1.54073    -1.59607
H     -2.22082    -0.80510    -2.14932
O     -2.25166     0.81213    -3.03446
H     -2.85060     1.31265    -3.59635
O     -1.86874     1.81761    -2.08720
H     -0.89736     1.68763    -2.05139
O      0.88830     1.60024     2.83392
H      0.86250     0.63450     2.89323
O      2.24068     1.84635     2.45376
H      2.13288     2.04553     1.51395
O      0.76064     1.26109    -1.74403
H      0.86242     0.29765    -1.89420
O      1.12074     1.36549    -0.36308
H      0.25225     1.25262     0.08035
O      3.26978    -1.76641     0.48329
H      4.02122    -1.68218     1.07841
O      2.31346    -0.90103     1.09858
H      2.21640    -0.20106     0.42908
O     -2.49340     1.82960     0.82560
H     -2.56674     1.73452    -0.13331
O     -1.15046     1.38188     0.98762
H     -0.80310     1.95893     1.68886
