 32
-1213.3194466319324
O      3.37118    -0.87253     0.69671
H      2.85558    -1.04396    -0.11738
O      2.60214     0.20995     1.23307
H      1.74724    -0.23445     1.43953
O     -3.40296    -0.29307    -0.49499
H     -3.68665    -0.08266     0.41880
O     -2.98088     0.97913    -0.97748
H     -3.62212     1.14159    -1.67387
O      2.54487    -0.28142    -2.45854
H      3.06029     0.39950    -1.99582
O      1.73659    -0.75864    -1.39092
H      1.01182    -0.09678    -1.39275
O     -0.25103     0.98450    -1.29874
H     -1.21323     0.90435    -1.16258
O      0.14755     1.65479    -0.09825
H      1.03447     1.99381    -0.35100
O      2.49426     2.69498    -0.76184
H      2.95714     3.45450    -0.39739
O      3.49696     1.68439    -0.74330
H      3.25754     1.20355     0.08543
O     -1.38079    -2.08209    -0.32418
H     -2.18843    -1.55403    -0.45709
O     -0.86761    -2.10222    -1.65476
H      0.07986    -2.02763    -1.48712
O     -0.57569     0.07613     1.90148
H     -0.39159     0.72600     1.18828
O      0.24411    -1.01932     1.48714
H     -0.33285    -1.47447     0.82812
O     -3.81515     0.04253     2.12384
H     -4.48864    -0.18954     2.76925
O     -2.93160    -1.07486     2.22067
H     -2.06719    -0.61177     2.18663
