 20
-758.3070810844704
O      0.91709    -2.14235    -0.30969
H      0.65077    -1.82161     0.58389
O      2.31746    -1.87257    -0.34963
H      2.67485    -2.76520    -0.36065
O     -0.22653    -1.07651     1.88949
H     -0.98026    -0.51014     1.66311
O      0.70285    -0.11386     2.40138
H      0.84979     0.45740     1.62292
O      0.71018     1.66287     0.36659
H     -0.19989     2.00857     0.32972
O      1.15245     1.85267    -0.98033
H      0.84209     1.03683    -1.40612
O     -1.36479    -0.39196    -1.76595
H     -1.77155    -0.28452    -2.63079
O      0.02429    -0.38260    -2.10334
H      0.35512    -1.12298    -1.54571
O     -1.97342     0.64205     0.60361
H     -1.74432     0.29904    -0.28025
O     -1.95096     2.03924     0.33532
H     -2.49948     2.37322     1.05067
