 32
-1213.3085541761618
O      2.87382    -0.51731     0.23587
H      2.55532    -0.22733    -0.64258
O      2.93246     0.76684     0.87386
H      2.43510     0.60848     1.69592
O     -2.30902    -2.31101    -0.98253
H     -1.56720    -2.13647    -0.37597
O     -1.58737    -2.63745    -2.17335
H     -2.20097    -3.24191    -2.60082
O     -1.12422    -0.11870    -3.25644
H     -1.15844    -0.99243    -2.84117
O     -0.76171     0.68967    -2.13787
H     -1.61398     0.77492    -1.65470
O     -0.11035     1.20590     0.59095
H      0.38276     1.84394     0.03946
O     -0.76336     2.02137     1.56540
H     -0.51465     1.52718     2.35994
O      1.83717     2.21622    -1.15146
H      2.53252     2.08692    -0.49261
O      1.84189     0.90091    -1.72762
H      0.89934     0.81940    -1.99766
O     -0.09054    -1.42721     0.30374
H     -0.14118    -0.45284     0.39229
O      0.80919    -1.78012     1.35180
H      1.66621    -1.49177     0.96431
O      1.81525     0.42169     3.28774
H      2.20659    -0.14229     3.96258
O      0.44294     0.02586     3.29736
H      0.45308    -0.70004     2.63234
O     -2.79899     0.33423     0.62857
H     -2.37939     1.18548     0.80210
O     -3.06949     0.45509    -0.78155
H     -3.24898    -0.47172    -0.99285
