 32
-1213.3014908137045
O      0.16085     3.31514     0.88419
H      0.63393     2.70386     0.28078
O      0.93247     3.14746     2.07451
H      1.50963     3.91717     2.05004
O     -1.11639    -2.72951    -2.73417
H     -1.19386    -3.22771    -3.55300
O     -0.38254    -1.58101    -3.16984
H     -1.02415    -0.86758    -3.02164
O     -1.40642     0.78406    -1.80206
H     -0.58438     0.67496    -1.29610
O     -2.36244     0.12197    -0.97977
H     -2.38067     0.70007    -0.19322
O     -1.40547    -2.12916     0.44285
H     -1.82885    -1.70974    -0.32485
O     -0.56625    -1.07483     0.88838
H     -1.12431    -0.54986     1.48943
O      1.23227     1.19974    -0.27367
H      1.43533     0.67304     0.54347
O      2.36471     0.93467    -1.08150
H      2.36246    -0.03483    -1.05270
O      1.95595    -2.88512    -1.66757
H      1.51098    -2.52390    -2.44483
O      1.52156    -1.95767    -0.66405
H      0.60213    -2.21705    -0.47353
O      1.19882     0.31200     3.02703
H      1.10966     1.24234     2.77831
O      1.83661    -0.21674     1.85913
H      1.31523    -1.02064     1.70719
O     -2.11589     1.73426     1.17295
H     -1.37604     2.37010     1.11675
O     -1.72089     0.93125     2.28205
H     -2.43309     1.08006     2.91138
