 32
-1213.303026015712
O      2.08474     1.34037     0.53895
H      2.35160     0.49845     0.13923
O      1.62740     2.07842    -0.59457
H      0.76711     2.39706    -0.27165
O     -0.61959    -2.14540     0.10308
H     -0.27773    -1.52917    -0.57342
O      0.50031    -2.28869     0.97916
H      0.41502    -1.53209     1.59301
O     -1.76682     0.72018    -2.90542
H     -0.79987     0.64636    -2.99770
O     -1.90109     2.10319    -2.54267
H     -2.79692     2.28291    -2.83898
O     -0.46626     0.32284     3.33791
H     -0.13445     0.24645     4.23656
O      0.64254    -0.14571     2.58991
H      0.75811     0.58427     1.95322
O      0.52815    -0.78132    -1.96225
H      1.32226    -1.33353    -2.05028
O      0.92203     0.40714    -2.64798
H      1.20335     0.99110    -1.91131
O      3.13871    -0.99986    -0.27307
H      3.99320    -1.28883     0.06269
O      2.55249    -2.21977    -0.71322
H      1.86838    -2.36295    -0.02240
O     -0.68528     0.96033     0.37752
H     -1.54698     0.58093     0.65462
O     -0.98773     2.30784     0.00354
H     -1.34473     2.15668    -0.89205
O     -2.72536    -0.60408     1.07489
H     -2.31615    -1.42300     0.75181
O     -2.78341    -0.85194     2.48477
H     -1.97296    -0.41267     2.78610
