 36
-1364.9747237827132
O      2.29905     1.59860     2.01473
H      1.53105     2.06876     2.36543
O      1.95009     1.55343     0.63017
H      2.62841     0.94826     0.25736
O     -2.41578    -0.01321    -1.59853
H     -2.07730    -0.91615    -1.47916
O     -2.24320     0.23094    -2.99106
H     -1.27049     0.16178    -3.06881
O     -1.00843     1.44568     3.60979
H     -1.85736     1.75638     3.94278
O     -0.50446     2.58203     2.90857
H     -0.72125     2.34340     1.98380
O     -2.03184    -3.36143     0.40719
H     -2.80857    -3.84444     0.11400
O     -1.52953    -2.87500    -0.83757
H     -0.58000    -3.00091    -0.69225
O     -0.62532     1.75228     0.37270
H      0.34151     1.56832     0.31129
O     -0.93942     2.07888    -0.97934
H     -1.63951     1.41461    -1.17461
O     -0.75295    -0.77103     2.10585
H     -0.81026     0.01254     2.69154
O     -2.11903    -1.20463     2.10889
H     -2.04240    -2.00291     1.56360
O      0.40544    -0.14345    -2.69960
H      0.35185    -0.51661    -1.79327
O      1.09222     1.06548    -2.37165
H      0.35953     1.58420    -1.96732
O      3.77662     0.02678    -0.55922
H      4.64274     0.14989    -0.95912
O      3.04458    -0.65572    -1.57437
H      2.47620     0.05516    -1.93454
O      1.15230    -2.20453    -0.11693
H      1.95737    -1.93514    -0.58706
O      0.46026    -0.95853    -0.23962
H      0.04220    -0.82950     0.65477
