 16
-606.6394553971542
O     -1.72074    -0.77772     0.71119
H     -1.54517     0.03976     0.20742
O     -2.19885    -0.22446     1.94150
H     -3.05667    -0.65193     2.00250
O      1.59844    -0.56567     1.37678
H      1.24579     0.27817     1.05589
O      0.97272    -1.47651     0.47058
H      0.03457    -1.40544     0.71582
O      0.67505     0.00651    -2.41232
H      1.00743     0.13611    -3.30523
O      1.89834    -0.20699    -1.68993
H      1.56818    -0.76792    -0.95494
O     -0.64112     1.33699    -0.52171
H     -0.06102     0.96840    -1.22019
O      0.31227     1.68669     0.48796
H     -0.27801     1.92244     1.20788
