 32
-1213.3136578821964
O     -0.90103    -3.70223    -0.59226
H     -0.57655    -4.58815    -0.40340
O     -2.16733    -3.68073     0.06283
H     -1.96058    -3.12949     0.84365
O      1.00285    -1.29745     0.47223
H      1.76837    -0.66424     0.40288
O      0.67611    -1.54291    -0.90367
H      0.05426    -2.29325    -0.82099
O     -2.21556    -0.58616    -1.06845
H     -2.22795    -0.52742    -0.09269
O     -3.37537    -1.35170    -1.35425
H     -3.01105    -2.24375    -1.30628
O      0.17522     1.00804    -1.09611
H      0.35598     0.05014    -1.26817
O     -0.77535     1.37500    -2.09101
H     -1.47289     0.71960    -1.88845
O      2.22065     2.72816    -1.25370
H      1.33594     2.31545    -1.30481
O      2.00377     3.76790    -0.30070
H      1.86739     4.53950    -0.85980
O      2.88109     1.05089     1.63209
H      1.92430     1.23102     1.74277
O      2.90392     0.52571     0.29836
H      2.95968     1.33342    -0.24083
O      0.11760     2.94324     1.45023
H      0.87990     3.20265     0.90354
O      0.24586     1.52646     1.46103
H      0.04941     1.34861     0.51841
O     -1.77571    -0.63450     1.58028
H     -1.14983     0.01368     1.94474
O     -1.17052    -1.89343     1.88924
H     -0.29101    -1.77224     1.47506
