 24
-909.9789785839171
O     -2.12509    -1.59325    -0.03571
H     -2.17246    -0.87977    -0.70293
O     -2.43649    -0.83284     1.13317
H     -1.58034    -0.82141     1.59222
O      0.79138    -1.09789    -0.93210
H      0.91201    -1.09756     0.03685
O      0.32167    -2.42650    -1.13817
H     -0.55657    -2.35676    -0.73186
O      0.93342    -1.17489     1.69740
H      1.48170    -1.41382     2.45119
O     -0.02192    -0.28271     2.26410
H      0.19605     0.55919     1.81170
O     -1.92247     0.78894    -1.14244
H     -0.95882     0.93249    -1.12554
O     -2.30170     1.55476     0.01581
H     -2.56165     0.81575     0.59586
O      2.64274     0.47887    -1.99049
H      1.99661    -0.21874    -1.75505
O      2.98805     0.96283    -0.68620
H      3.93612     0.80186    -0.65363
O      0.23267     2.07356     0.91740
H     -0.70420     2.30541     0.81330
O      0.46759     1.66977    -0.44203
H      1.44095     1.64973    -0.49440
