 24
-909.980683236947
O     -2.16940    -1.12092    -0.12702
H     -2.42550    -0.33849    -0.65878
O     -2.00377    -0.56387     1.18216
H     -1.35109    -1.17427     1.55620
O      0.29289    -1.95351    -0.73951
H     -0.66167    -1.74472    -0.69588
O      0.71728    -1.10821    -1.81578
H      1.67332    -1.14033    -1.69102
O      3.11738    -0.32076    -0.25718
H      2.69126    -0.49907     0.61075
O      2.71814     1.03640    -0.45531
H      3.45163     1.53984    -0.08725
O     -2.67082     0.91412    -1.80698
H     -3.46280     1.19247    -2.27540
O     -2.39136     2.07246    -1.00986
H     -1.44376     1.91246    -0.84029
O      1.62929    -0.43414     1.97353
H      1.05095     0.34411     1.83938
O      0.68014    -1.49388     1.84087
H      0.72826    -1.67699     0.88182
O      0.09888     1.52007    -0.21072
H      1.04493     1.27886    -0.28977
O     -0.14317     1.38993     1.19315
H     -0.94200     0.83028     1.18463
