 40
-1516.6345774340712
O      1.80022     3.40375     0.84362
H      2.26615     4.22802     1.01156
O      2.85073     2.44608     0.88423
H      2.82427     2.10323    -0.03621
O      2.61545     1.26728    -1.49603
H      2.15956     1.50746    -2.32827
O      2.11276    -0.05023    -1.23636
H      1.79933     0.04577    -0.30913
O      1.12820     0.07377     1.18723
H      0.63668    -0.73636     1.43079
O      2.02040     0.27605     2.29481
H      2.41785     1.10929     1.98991
O     -2.85648    -3.75496    -1.24009
H     -2.57909    -3.82908    -0.31631
O     -3.06714    -2.34740    -1.32643
H     -4.02451    -2.26866    -1.41518
O     -0.61920     2.30643     0.28230
H      0.28830     2.61587     0.44830
O     -0.59526     1.98754    -1.10900
H     -0.82557     1.03690    -1.14496
O      0.92019     3.22922    -2.95032
H      0.28867     2.84875    -2.31258
O      1.26814     2.04140    -3.66978
H      1.56007     2.40575    -4.50987
O     -1.14071    -0.53624    -1.79712
H     -1.85275    -1.19758    -1.68461
O     -0.05383    -1.37108    -2.19083
H      0.72232    -0.84461    -1.91259
O     -1.84325     0.48376     1.82729
H     -1.42551     1.17852     1.27850
O     -2.73800    -0.14360     0.90676
H     -2.26074    -0.96989     0.74444
O      0.25542    -1.87027     3.20581
H      1.00785    -1.46265     3.65596
O     -0.86386    -1.43324     3.98685
H     -1.24024    -0.75651     3.39919
O     -0.87699    -3.51933     1.06472
H     -0.53058    -3.30729     1.94560
O     -0.55706    -2.27764     0.41580
H     -0.32451    -2.54629    -0.48617
