 36
-1364.9785971221838
O      1.94433     0.76084     0.01519
H      1.51600     1.23215    -0.74125
O      3.07173     0.15333    -0.60918
H      2.62572    -0.62348    -1.00542
O     -2.11650     0.31263     0.01501
H     -2.50770    -0.52277     0.34806
O     -1.31454    -0.15056    -1.06940
H     -0.62837    -0.62023    -0.54883
O     -2.06541    -2.67434     1.60758
H     -1.47359    -1.95479     1.91435
O     -3.14944    -1.92589     1.06595
H     -3.81770    -2.00119     1.75371
O      1.49596    -1.65588    -1.77874
H      0.76229    -2.23917    -1.52478
O      1.02571    -1.06779    -2.98281
H      1.13624    -0.12623    -2.79555
O      0.23329    -1.03418     0.81260
H      0.98067    -0.39846     0.69192
O     -0.29039    -0.73623     2.11439
H     -0.38987     0.24253     2.10354
O     -1.09368     2.54223     1.07410
H     -1.51455     1.76617     0.65149
O     -0.47716     1.92903     2.20836
H      0.36837     2.42004     2.22172
O     -0.51039     2.24570    -1.97905
H     -0.80603     1.36927    -1.64316
O      0.92217     2.11238    -1.97655
H      1.17701     2.98377    -1.63324
O      1.05487     3.84432     0.22235
H      0.12748     3.58219     0.37065
O      1.65612     3.24345     1.37753
H      2.16325     2.51631     0.98991
O      0.19967    -4.94312    -0.36899
H     -0.18158    -5.46455    -1.08180
O     -0.38980    -3.66565    -0.61365
H     -0.96340    -3.55126     0.16190
