 32
-1213.310603721372
O      0.44236    -3.54333     2.08560
H      0.80134    -4.15480     2.73574
O      1.22611    -2.37192     2.33464
H      0.54785    -1.78823     2.72533
O      0.86928     1.10799    -2.51620
H      1.72097     1.48251    -2.21987
O      1.10916    -0.30228    -2.56895
H      1.38250    -0.50640    -1.65519
O     -1.01939    -0.89420     2.64263
H     -1.00011    -0.12563     2.04014
O     -1.95423    -1.74083     1.95636
H     -1.42036    -2.53859     1.81893
O     -0.55391     2.38829     1.04883
H      0.07245     2.60853     0.34532
O     -0.77514     1.01484     0.75669
H     -1.26638     1.05323    -0.11344
O      1.87844     3.06666    -0.53949
H      2.42847     3.75625    -0.15300
O      2.84156     2.05749    -0.84096
H      2.64138     1.38750    -0.15197
O     -1.10196    -1.75703    -0.97931
H     -0.72050    -1.25885    -1.71516
O     -2.24447    -0.96664    -0.62490
H     -2.30670    -1.15545     0.32840
O      1.75081     0.22856     0.78752
H      0.80160     0.50974     0.79770
O      1.68769    -0.97271    -0.00408
H      1.53651    -1.64349     0.68956
O     -2.54958     0.94183    -2.52343
H     -2.81966     0.21089    -1.94818
O     -1.61730     1.57685    -1.64298
H     -0.77619     1.47484    -2.13797
