 32
-1213.3142558300567
O      2.39257    -0.06099     0.98943
H      2.16493    -0.45694     0.11787
O      2.12339     1.32668     0.77776
H      1.22238     1.43223     1.15693
O     -1.57625    -1.67410     0.35436
H     -0.79532    -1.81086     0.92577
O     -1.02870    -1.77172    -0.95931
H     -0.90813    -0.82654    -1.20555
O     -0.70360     0.75365    -1.70843
H      0.16211     1.19544    -1.80841
O     -1.45019     1.74548    -0.99054
H     -2.31296     1.27074    -0.91792
O     -0.40806     1.73072     1.49350
H     -0.85705     1.82420     0.62643
O     -1.25027     0.78851     2.16603
H     -0.58375     0.16531     2.51015
O      1.74651     1.89167    -1.79770
H      2.10452     1.74678    -0.89435
O      2.80901     1.42146    -2.61419
H      2.97338     2.19643    -3.15991
O      1.76916    -1.03751    -1.39532
H      2.26944    -0.87380    -2.20598
O      1.56940    -2.45838    -1.41442
H      0.59730    -2.47505    -1.34786
O      0.42759    -2.17990     2.12209
H      0.51592    -2.84227     2.81330
O      0.73557    -0.97754     2.81716
H      1.49300    -0.65974     2.27366
O     -3.93859     0.57244     0.70279
H     -3.15185     0.62988     1.26293
O     -3.40439     0.03987    -0.50591
H     -2.93176    -0.77036    -0.21615
