 40
-1516.6370055338207
O      3.24387     2.02603    -0.20211
H      2.32651     1.70715    -0.28364
O      3.85422     1.04135     0.63807
H      3.23436     0.98747     1.39496
O      0.30979     1.13316    -1.70025
H     -0.38820     1.82337    -1.67506
O      0.67356     1.14412    -0.31385
H      0.62916     0.17562    -0.13248
O     -1.25587     1.80137     1.35932
H     -0.51913     1.76899     0.71657
O     -0.79559     0.87202     2.34955
H     -1.30970     0.05952     2.11366
O      1.86131     0.40338     2.30307
H      0.91107     0.65720     2.34035
O      1.76782    -1.02598     2.22275
H      2.50376    -1.25202     1.62470
O     -1.36711     3.17053    -1.38381
H     -1.36632     4.10800    -1.16694
O     -2.64530     2.98508    -2.00302
H     -3.03865     2.34006    -1.38848
O     -1.81581    -1.40349     1.53676
H     -1.92289    -1.86450     0.68096
O     -1.00819    -2.31190     2.27645
H     -0.12759    -1.92848     2.15551
O     -3.29087     0.98117    -0.26301
H     -2.60661     1.19289     0.40097
O     -2.53627     0.17973    -1.17648
H     -2.99740    -0.67516    -1.14609
O      3.43995    -1.13752    -0.75951
H      3.64684    -0.22385    -0.42923
O      3.62157    -1.88932     0.44492
H      4.57182    -2.04843     0.46034
O      0.22779    -1.55426    -2.01321
H      0.10098    -0.61047    -2.21507
O      0.72645    -1.43675    -0.67380
H      1.69301    -1.55674    -0.80284
O     -2.01888    -2.60187    -0.96763
H     -1.20820    -2.33881    -1.45746
O     -3.03257    -2.46248    -1.95876
H     -3.64062    -3.14927    -1.67174
