 20
-758.3015737241245
O      0.90317    -2.60063    -0.43478
H      0.99497    -2.02556     0.33978
O      0.60766    -3.85395     0.18773
H      1.35937    -4.38560    -0.09321
O      1.38343    -0.42191     1.55962
H      0.85223     0.39040     1.57962
O      2.70004     0.12847     1.40690
H      3.11160    -0.13299     2.23781
O      0.95086     1.92397    -0.63586
H      1.81289     1.63415    -0.31286
O      0.23161     2.02221     0.60456
H     -0.63759     2.35106     0.28239
O     -1.26612    -1.06027    -1.60247
H     -0.79353    -1.87379    -1.37253
O     -1.07936    -0.31080    -0.39418
H     -0.32243     0.25815    -0.61589
O     -2.13444     2.69462    -0.41191
H     -2.27595     2.93848    -1.33294
O     -3.01085     1.56831    -0.25449
H     -2.37518     0.82681    -0.30738
