 32
-1213.3118909391033
O      2.90537     0.63461     1.25105
H      2.61674     0.91040     2.13610
O      2.39429     1.67428     0.41235
H      1.46129     1.76315     0.68455
O     -2.69501    -2.30133    -3.05594
H     -2.45101    -3.14948    -3.43846
O     -1.75862    -2.19498    -1.98466
H     -1.24945    -1.40098    -2.25508
O     -0.67068     0.19645    -2.36536
H      0.28630     0.46199    -2.33397
O     -1.28557     1.13313    -1.46777
H     -2.09690     0.64652    -1.21810
O     -0.26831     2.04808     0.82131
H     -0.63334     1.78436    -0.05231
O     -1.31760     1.64542     1.69975
H     -0.81697     1.45381     2.50751
O      1.88869     0.65267    -2.04735
H      2.27164     1.07251    -1.25178
O      2.27866    -0.71413    -1.89975
H      1.57044    -1.04168    -1.31316
O      0.43017    -1.39999    -0.11769
H     -0.51454    -1.24281     0.08011
O      1.02537    -1.27696     1.17475
H      1.85277    -0.80222     0.96652
O      1.65942     0.70799     3.67293
H      2.00222     0.19900     4.41353
O      0.40803     0.07935     3.42534
H      0.60644    -0.47803     2.64513
O     -2.06139    -0.67648     0.62021
H     -1.96663     0.18616     1.06889
O     -3.12498    -0.40076    -0.29445
H     -3.10162    -1.21150    -0.82403
