 36
-1364.973107291254
O      0.46392     3.42896     1.59788
H      1.36239     3.19112     1.33616
O     -0.22653     3.18790     0.37471
H     -0.98314     2.64856     0.67913
O     -1.33064     0.75149    -2.43566
H     -1.74803     0.52787    -1.59386
O     -0.09713     0.04293    -2.31957
H      0.55055     0.76676    -2.20104
O      0.67181     0.37479     1.01883
H      1.33514     0.91122     0.51924
O      1.37401    -0.85103     1.23859
H      0.61610    -1.42227     1.46921
O      3.85411     0.00202    -1.79718
H      4.72022    -0.16575    -2.17872
O      2.97611    -0.56789    -2.77867
H      2.59887    -1.31268    -2.25801
O     -3.94179    -0.43083     2.71417
H     -4.90175    -0.36844     2.67297
O     -3.68650    -1.40586     1.69410
H     -3.11840    -0.88868     1.09498
O     -1.90727     0.28044     0.47791
H     -0.93429     0.23206     0.65901
O     -2.24153     1.53876     1.07191
H     -2.55024     1.27092     1.95120
O      2.31832     1.77365    -0.47065
H      2.95498     1.22960    -0.98431
O      1.36295     2.14768    -1.47206
H      0.71681     2.64084    -0.91887
O      1.87357    -2.22303    -1.01167
H      1.82836    -1.68971    -0.19232
O      0.49376    -2.38794    -1.32983
H      0.27865    -1.51546    -1.72000
O     -1.36167    -3.29262     2.07766
H     -2.23001    -2.87681     2.16731
O     -0.76115    -2.37832     1.16258
H     -0.58447    -2.91162     0.37036
