 20
-758.3005624568871
O     -1.07105    -1.61740     0.91979
H     -1.92160    -1.15439     1.05556
O     -0.43803    -1.31662     2.17530
H      0.49514    -1.25978     1.90208
O      2.35831     0.13731     0.86178
H      1.67338    -0.02368     0.18818
O      2.20745    -1.04600     1.66593
H      2.72751    -0.80231     2.43705
O      0.34875    -0.34849    -0.89099
H     -0.23563    -0.91363    -0.32918
O     -0.39109     0.88401    -0.90666
H     -0.08203     1.23727    -1.76100
O      0.98116     1.59542    -3.08326
H      1.74669     2.16675    -2.95754
O      1.58363     0.36733    -3.51320
H      1.40799    -0.18893    -2.74069
O     -3.09600     0.03301     1.45071
H     -2.95057     0.35308     2.34732
O     -2.96269     1.22277     0.67270
H     -2.11885     1.06094     0.22928
