 28
-1061.638846457254
O     -0.36648    -3.10042    -0.71421
H     -0.82475    -3.60846    -1.39234
O      0.92966    -2.89921    -1.28591
H      0.86294    -1.95702    -1.54734
O     -1.12170     0.43004     2.61080
H     -1.49486    -0.28963     2.06773
O     -0.17835    -0.27394     3.42525
H      0.47719    -0.51305     2.74672
O      1.26504    -0.84186     1.24648
H      1.41002    -0.54066     0.33079
O      2.11918    -1.97655     1.37716
H      1.08660     1.03622    -2.70052
O      0.10287     3.27347    -1.76438
H      0.34954     4.20437    -1.74245
O      1.34765     2.62583    -1.46349
H      1.14731     2.31743    -0.56073
O     -1.29543     2.18710     0.20390
H     -1.01632     2.63215    -0.61567
O      0.00924     1.95072     0.78293
H     -0.26363     1.45625     1.59562
O      0.54434    -0.24897    -1.50285
H     -0.40483    -0.17643    -1.24713
O      0.55289     0.24391    -2.83895
H      1.54799    -2.68212     1.04697
O     -1.76302    -1.19415     0.57223
H     -1.19355    -1.88507     0.18476
O     -1.93355    -0.30532    -0.54379
H     -1.89784     0.57864    -0.12125
