 36
-1364.9779034791466
O     -2.14865     0.10594    -1.28582
H     -1.56559     0.73131    -1.76612
O     -2.81958     0.93325    -0.33035
H     -2.70235     0.39749     0.46753
O     -1.76033    -1.35840     1.13236
H     -1.30730    -1.88278     1.81351
O     -1.33384    -2.06194    -0.04841
H     -1.58542    -1.40218    -0.72811
O      2.45421     0.34628     3.26641
H      3.33269     0.14390     3.59941
O      2.29360    -0.66828     2.28202
H      2.17196    -0.14923     1.46029
O      0.58550    -0.84664    -3.90772
H      0.14211    -1.37154    -4.57886
O      0.09607    -1.46113    -2.71607
H      0.87741    -1.35691    -2.13579
O     -0.34105     1.37340    -2.76937
H      0.10161     0.68604    -3.30258
O      0.73459     1.86517    -1.96386
H      0.24946     2.49015    -1.37115
O     -0.52341     3.17489    -0.04577
H     -0.49932     2.54364     0.69825
O     -1.91424     3.47372    -0.14951
H     -2.28760     2.58454    -0.27703
O     -0.32083     1.10559     1.64071
H     -0.47410     0.23990     1.22883
O     -0.67498     0.89632     3.00168
H      0.20148     0.91035     3.40967
O      1.74627     0.07219    -0.22947
H      1.41688     0.67192    -0.94108
O      2.06874    -1.12382    -0.94634
H      1.91956    -1.79538    -0.25709
O      0.96891    -3.00655     0.80323
H      0.14956    -2.88355     0.29009
O      0.45518    -2.61384     2.08766
H      1.10377    -1.93004     2.33063
