 24
-909.9774041336573
O     -2.09808    -1.34208     0.54987
H     -1.85124    -0.62404    -0.06674
O     -1.91114    -0.65979     1.80302
H     -1.02480    -0.98149     2.03393
O      1.48456    -1.18894    -0.91887
H      1.18350    -1.97512    -0.44016
O      0.35349    -0.94204    -1.76813
H      0.64950    -0.12821    -2.20794
O      1.33338     1.33709     1.45524
H      0.45020     1.64847     1.19082
O      1.99346     1.22312     0.19413
H      1.84404     0.28799    -0.05488
O     -1.49278     1.04580    -0.43093
H     -0.82846     1.46900    -1.00380
O     -1.29903     1.80750     0.77690
H     -1.72138     1.19500     1.39977
O      0.00932    -2.94220     0.74038
H     -0.85479    -2.55263     0.49158
O      0.20508    -2.28120     1.99963
H      0.01418    -2.99126     2.62091
O      0.54173     2.32159    -1.69147
H      1.21365     2.14664    -0.98966
O      1.06644     1.48857    -2.72694
H      1.16921     2.11914    -3.44490
