 40
-1516.6405863856126
O      2.77551    -0.11728    -0.36321
H      2.46392    -0.51114     0.48592
O      1.93074     1.01730    -0.53201
H      1.13065     0.63003    -0.93640
O      0.84548    -1.05133     2.52848
H      0.81489    -0.11178     2.26225
O      1.89105    -1.56306     1.69640
H      1.41364    -2.27436     1.22681
O      0.61367     1.53431     1.71739
H      1.11826     1.50203     0.87954
O     -0.60257     2.17179     1.31264
H     -1.28849     1.67515     1.80352
O     -1.81019     0.47792    -0.79175
H     -1.39032     0.76864    -1.62616
O     -0.67560    -0.17372    -0.20570
H     -0.73104    -1.10045    -0.51408
O     -1.69952    -2.30303     1.82079
H     -1.16336    -1.64856     2.29708
O     -2.82432    -2.47685     2.67472
H     -3.42801    -1.82715     2.29242
O     -0.09390     3.50665    -0.96677
H     -0.32448     3.11440    -0.09683
O      1.14825     4.14674    -0.70132
H      1.78018     3.46768    -0.97079
O      0.47517     1.99531    -3.08977
H      0.15821     2.54346    -2.33817
O     -0.07435     0.72731    -2.71948
H      0.58176     0.09899    -3.06939
O     -2.60358     0.83673     2.51824
H     -3.31261     1.30188     2.97337
O     -3.32971     0.11564     1.52176
H     -2.78105     0.27446     0.73320
O     -0.15831    -2.72501    -0.98568
H      0.67793    -2.65628    -1.48363
O      0.28412    -3.19917     0.28811
H     -0.53435    -3.08311     0.81226
O      1.77431    -1.11529    -3.32362
H      2.44650    -1.32873    -3.97826
O      2.15207    -1.93496    -2.22102
H      2.51049    -1.26539    -1.59321
