 24
-909.9819315371693
O     -2.52953    -0.35824     0.76953
H     -2.05594     0.12806     0.06581
O     -2.21567    -1.71844     0.45428
H     -1.56825    -1.90012     1.16417
O      0.62664    -2.11434    -0.70838
H      0.96766    -2.92740    -1.09151
O     -0.45224    -1.81113    -1.59303
H     -1.21356    -1.89249    -0.98197
O      2.63750     2.53582    -1.35461
H      3.40566     2.55895    -1.93332
O      2.26830     1.16500    -1.45521
H      1.38146     1.22419    -1.86548
O     -0.34653     0.86163    -2.04952
H     -0.38623    -0.11224    -2.01320
O     -1.06608     1.20331    -0.85810
H     -0.34016     1.40529    -0.23017
O     -0.28528    -1.32556     2.22423
H      0.43649    -0.98894     1.65778
O     -0.77060    -0.07212     2.73993
H     -1.59480    -0.01204     2.22217
O      0.75043     1.47751     1.11378
H      0.25162     1.25996     1.91971
O      1.41723     0.21275     0.93319
H      1.86718     0.38711     0.08826
