 12
-454.9640937616922
O      2.96955    -1.47753    -0.93245
H      3.86542    -1.79437    -0.76758
O      2.84199    -0.47547     0.08047
H      2.78639     0.32604    -0.45199
O      0.24948     0.47836     1.08612
H      0.91885    -0.18320     0.86306
O      0.15173     1.19011    -0.15836
H     -0.73591     0.93300    -0.44370
O     -2.75446     0.84198     0.11295
H     -2.53060     0.77739     1.04817
O     -3.41845    -0.40629    -0.10441
H     -4.31873    -0.10898    -0.28150
