 40
-1516.6416993749124
O     -1.22622    -2.10081    -1.52150
H     -0.72243    -2.92725    -1.50754
O     -0.65434    -1.46591    -2.67602
H     -1.02257    -0.56669    -2.61208
O      1.95308     1.27603     1.89287
H      1.57237     0.39102     1.80912
O      1.09566     1.89937     2.84713
H      0.62179     2.55016     2.29975
O     -0.52044     3.57181     1.33853
H     -1.38051     3.12064     1.46582
O     -0.51525     3.73399    -0.07981
H      0.40858     3.50320    -0.29122
O     -1.96324     1.70854    -1.13357
H     -1.56639     2.56540    -0.87091
O     -1.06865     1.22871    -2.13608
H     -0.20166     1.29189    -1.68444
O     -2.83389     2.31081     1.71270
H     -3.73608     2.64957     1.72570
O     -2.78506     1.46107     2.85797
H     -2.61880     0.61023     2.42604
O     -1.07938    -0.14709     0.58314
H     -1.60904     0.41766    -0.03700
O     -2.02100    -1.02569     1.21020
H     -1.46643    -1.81892     1.24160
O      1.17222    -1.36060     0.69099
H      0.41693    -0.79851     0.40192
O      0.42771    -2.49578     1.14168
H      0.95531    -3.22571     0.77469
O      2.52189    -1.23716    -1.57692
H      2.12307    -1.45910    -0.71069
O      1.87799    -2.17085    -2.44602
H      1.02912    -1.72373    -2.65600
O      0.82959    -4.24671    -1.15934
H      1.41636    -3.61100    -1.62103
O      1.64674    -4.59407    -0.04671
H      1.42914    -5.52343     0.05937
O      1.28245     1.18937    -0.92342
H      2.03636     0.67461    -1.26170
O      1.85564     2.41659    -0.46587
H      2.02529     2.15039     0.46936
