 28
-1061.641262209239
O      0.33660    -0.22877    -2.33774
H      0.96369    -0.60630    -1.68878
O     -0.87439    -0.90309    -1.96663
H     -1.55195    -0.24729    -2.22549
O      0.42338     2.29940    -1.42821
H      0.27732     1.46517    -1.91769
O     -0.87279     2.57159    -0.90315
H     -0.83369     2.15186    -0.02700
O      1.56138    -2.11981     2.94016
H      2.09391    -2.74175     3.44417
O      2.55710    -1.21852     2.46834
H      0.44284    -2.53276     1.58388
O      0.23064     0.53331     1.97634
H     -0.14084    -0.24738     1.49171
O     -0.70335     1.54531     1.59438
H     -1.30230     1.57459     2.34683
O     -2.64499     1.15567    -2.27743
H     -2.09374     1.86962    -1.88980
O     -3.52274     0.87539    -1.18321
H     -4.37664     1.01883    -1.60086
O     -0.79966    -1.50539     0.65357
H     -0.84437    -1.39338    -0.32270
O     -0.07275    -2.73026     0.78833
H      2.08921    -0.37931     2.58644
O      2.02654    -0.73343    -0.32931
H      2.35354    -1.21858     0.44144
O      2.60992     0.55783    -0.12220
H      1.85685     1.14053    -0.29908
