 28
-1061.6425808843708
O     -0.84382    -0.74976    -2.37081
H     -0.82391     0.20759    -2.18212
O     -1.82687    -1.20012    -1.43579
H     -1.33443    -1.17803    -0.59592
O      2.12761    -0.75072     1.70921
H      1.38275    -1.18279     1.25960
O      1.46159    -0.12404     2.80140
H      1.83185    -0.60137     3.55134
O     -1.12545    -0.21515     2.13741
H     -0.30770    -0.00937     2.61453
O     -0.55762    -0.47053     0.85161
H      0.68598    -1.40573    -1.91917
O      0.04549     1.86849    -0.15255
H      0.95397     1.74749    -0.53771
O     -0.80073     1.70910    -1.29702
H     -1.68212     1.68845    -0.86929
O     -3.76327     1.04738     0.96005
H     -2.99658     0.77334     1.48233
O     -3.20557     1.12564    -0.35091
H     -3.24931     0.21217    -0.67533
O      1.19578    -2.38324    -0.40089
H      1.89131    -3.04266    -0.45102
O      1.56106    -1.54388    -1.49074
H     -0.29870     0.43849     0.55890
O      3.28437     1.04350    -0.02204
H      2.84291     0.49032     0.64231
O      2.35579     1.03099    -1.10742
H      2.25868     0.08018    -1.29989
