 36
-1364.9745066678488
O      3.79776     1.25722     0.59135
H      4.26187     1.50460     1.39709
O      2.96598     2.39226     0.35756
H      2.08269     2.02255     0.57232
O     -3.24945    -1.95868    -0.42869
H     -3.23992    -1.30489     0.29731
O     -3.85637    -1.24584    -1.50328
H     -3.08408    -0.89681    -1.97066
O      2.72583     1.95651    -2.46571
H      2.89723     2.48998    -1.67839
O      1.49354     1.35157    -2.06048
H      0.95908     1.40134    -2.86318
O     -1.16727     0.02407    -2.01392
H     -0.87687    -0.69240    -1.39620
O     -1.43212     1.14232    -1.16291
H     -0.54189     1.43265    -0.90453
O      0.60001     1.29612     0.82844
H      0.68551     0.33381     0.95684
O     -0.03169     1.73057     2.03171
H     -0.97393     1.56902     1.80302
O     -2.54950     1.12169     1.24566
H     -2.37618     1.06442     0.28384
O     -2.81382    -0.23539     1.59935
H     -1.95567    -0.50927     1.96867
O     -0.95505    -2.94877    -1.29243
H     -1.87883    -2.73702    -1.02687
O     -0.28370    -1.94402    -0.53134
H      0.63672    -1.96019    -0.87509
O      0.67263    -1.14492     3.14753
H      0.69576    -0.20036     3.35064
O     -0.35685    -1.12378     2.15992
H     -0.08691    -1.79964     1.51746
O      2.14437    -1.10039    -1.13476
H      1.96692    -0.19699    -1.46549
O      2.22672    -0.91263     0.28657
H      2.90065    -0.20832     0.37154
