 12
-454.96927052533533
O      0.12995     0.89937    -0.54306
H      0.84873     0.29689    -0.79313
O      0.20959     0.79863     0.88938
H     -0.64356     0.38749     1.09287
O      2.84158    -0.63061     0.69182
H      2.08501    -0.15896     1.07409
O      2.61381    -0.41031    -0.70773
H      3.27753     0.25619    -0.91524
O     -2.56534     0.24929     0.10119
H     -1.99259     0.42708    -0.65567
O     -3.02547    -1.07215    -0.20686
H     -3.95960    -0.91096    -0.37774
