 36
-1364.9744150885933
O     -2.84573     1.37577     0.38388
H     -2.43161     1.41166    -0.51095
O     -2.91188    -0.02754     0.59763
H     -3.83626    -0.22872     0.42391
O     -1.54378    -3.06065     0.74025
H     -0.88484    -3.25199     1.42471
O     -0.96531    -1.88371     0.18605
H     -1.62889    -1.20285     0.40066
O      0.73062    -0.26402     1.97755
H      0.77549     0.25614     1.13827
O      1.31510     0.65696     2.88772
H      0.67381     1.37475     2.80000
O      0.29332    -0.22704    -3.14821
H      0.74936    -0.93836    -2.64951
O      1.35808     0.64682    -3.53132
H      1.63458     0.98554    -2.65845
O     -1.14375     2.53878    -2.56634
H     -0.80479     2.23528    -3.41811
O     -1.54021     1.31359    -1.95084
H     -0.88360     0.66063    -2.29867
O     -0.60747     3.57079     1.20581
H     -0.80763     4.32062     1.77468
O     -0.97658     2.47843     2.05438
H     -1.69475     2.07162     1.52821
O      2.06608     1.18363    -0.93962
H      2.25334     0.24118    -0.75221
O      0.88624     1.30690    -0.13687
H      0.56993     2.20707    -0.31071
O      1.18133    -2.03388    -1.35795
H      0.35866    -2.07792    -0.82004
O      2.08281    -1.42765    -0.41924
H      2.04234    -2.05217     0.33315
O      1.88427    -3.16820     1.60791
H      2.56307    -3.37744     2.25601
O      0.76729    -2.84565     2.43236
H      0.74754    -1.86810     2.31157
