 40
-1516.6426435379283
O      3.00408     0.47098     1.01839
H      2.36679     0.53655     1.74861
O      3.06537    -0.94439     0.79932
H      2.65945    -0.99155    -0.09220
O     -0.86519     0.18773    -0.56419
H     -1.13323     1.07732    -0.24016
O     -1.80001    -0.07530    -1.61612
H     -1.21849     0.05028    -2.39330
O     -2.51807     1.55818     2.68010
H     -1.68685     1.11487     2.96294
O     -3.17541     0.48938     1.99631
H     -3.87330     0.26957     2.62068
O      0.90420     1.00313     2.72811
H      0.49172     1.74384     2.23613
O     -0.23958     0.25238     3.12173
H     -0.18375    -0.53710     2.54882
O     -0.11112     2.91310     1.08726
H      0.47924     2.79679     0.31338
O     -1.37397     2.74092     0.42982
H     -1.97441     2.75780     1.19156
O      1.45393     2.08778    -0.83225
H      2.27542     1.67482    -0.51481
O      1.83525     2.79531    -2.00732
H      1.48877     2.19667    -2.68310
O     -0.33284     0.27886    -3.85919
H     -0.41997    -0.30707    -4.61844
O      1.08388     0.34671    -3.69298
H      1.23572    -0.24767    -2.93015
O     -0.16721    -1.98165     1.63888
H     -0.82387    -2.15396     0.92974
O      0.93798    -2.78420     1.23523
H      1.68563    -2.20875     1.46351
O      0.98945    -2.28946    -1.42421
H      0.98006    -2.60025    -0.49849
O      1.42903    -0.94167    -1.27100
H      0.63069    -0.50780    -0.88808
O     -1.96657    -3.49822    -1.17159
H     -2.71767    -3.99308    -0.83779
O     -1.99221    -2.39277    -0.28320
H     -2.04924    -1.62094    -0.88432
