 36
-1364.9693950239655
O      2.89476     0.41359    -0.07857
H      2.54356     1.21379    -0.49144
O      1.67445    -0.12022     0.43517
H      1.82057    -1.08887     0.37689
O     -0.19240     2.19521    -1.08433
H      0.22905     1.71696    -1.83031
O      0.93859     2.59910    -0.30065
H      0.63255     2.38802     0.59723
O     -1.24624    -0.04664     0.25400
H     -0.37883     0.23565    -0.09673
O     -2.04763    -0.09741    -0.92033
H     -2.62220     0.66736    -0.76061
O      1.16238     0.64179    -2.86930
H      1.06991    -0.26638    -2.49969
O      0.27690     0.56353    -3.98888
H      0.90719     0.58339    -4.71534
O      0.55059    -2.97730    -2.25850
H      0.75958    -3.37752    -1.40445
O      0.30367    -1.63455    -1.85063
H     -0.65189    -1.52126    -1.96066
O     -0.78430    -2.06150     1.90989
H     -1.01072    -1.32528     1.30397
O     -0.27997    -1.40252     3.07768
H     -0.75823    -0.55863     3.08262
O     -3.02785     2.54263     1.20797
H     -3.53928     3.32262     1.44632
O     -2.99721     2.61502    -0.20936
H     -2.05300     2.77254    -0.36520
O      2.27707    -2.70881     0.60682
H      2.93970    -3.07704     1.20039
O      1.16138    -3.58387     0.77289
H      0.54605    -3.03161     1.30581
O     -0.90754     1.21420     2.93051
H     -1.60642     1.53316     2.33891
O      0.25833     1.70216     2.27462
H      0.72051     0.87742     2.05136
