 24
-909.9711022534455
O     -1.36741     1.27272     2.28986
H     -0.96705     1.35742     1.41257
O     -1.84014    -0.07593     2.24216
H     -1.41854    -0.44486     3.02465
O      1.16380    -1.19430    -1.71542
H      0.49545    -1.48570    -1.06805
O      0.41941    -0.21325    -2.44061
H      0.67072     0.61258    -1.98441
O      3.00568    -0.08230    -0.07144
H      2.39019    -0.46381    -0.72867
O      2.12229     0.50347     0.88117
H      1.56462    -0.24604     1.15771
O     -2.26651     0.05165    -0.57504
H     -3.20059    -0.00041    -0.34607
O     -2.19150    -0.76937    -1.74995
H     -1.32914    -0.47538    -2.09238
O     -0.37883    -1.78698     0.38780
H     -1.11915    -1.22650     0.68072
O      0.55593    -1.61561     1.45730
H      0.96720    -2.48460     1.48038
O      0.96792     1.99991    -0.92760
H      1.53476     1.60439    -0.22122
O     -0.22102     2.29558    -0.20171
H     -0.13903     3.24218    -0.06134
