 36
-1364.980728471336
O      3.16343     1.96959     0.39108
H      3.92047     2.27858     0.89851
O      2.08342     2.38772     1.21935
H      1.64983     1.52342     1.40383
O      0.40246     2.62230    -1.55972
H     -0.40839     2.24203    -1.95464
O     -0.10743     3.00958    -0.28081
H      0.71703     3.06253     0.23800
O     -0.97487    -2.53116     2.48321
H     -0.63852    -1.63809     2.71352
O      0.06935    -3.37078     2.97029
H      0.49535    -3.63801     2.14332
O     -1.82397     1.32604    -2.29589
H     -2.30635     1.17395    -1.45299
O     -1.46441    -0.00753    -2.65910
H     -0.56423     0.12632    -3.00620
O     -1.85301     1.49265     1.08382
H     -1.28160     2.03787     0.50681
O     -2.75489     0.88618     0.16449
H     -2.64415    -0.06588     0.36975
O     -2.19651    -1.70203     0.25125
H     -1.81131    -2.09363     1.06153
O     -1.03205    -1.61648    -0.57493
H     -1.32981    -1.03729    -1.31502
O      1.19663     0.20392    -3.30221
H      1.87508     0.29334    -3.98209
O      1.95794     0.20173    -2.09629
H      1.75605     1.08587    -1.73081
O     -0.19347     0.00495     2.49719
H     -0.94505     0.52865     2.15702
O      0.68279     0.17053     1.38340
H      0.98903    -0.73852     1.15756
O      1.80279    -1.97324     0.27982
H      1.81793    -1.66718    -0.63924
O      0.95398    -3.11816     0.25144
H      0.12488    -2.69673    -0.04880
