 36
-1364.9741842662402
O     -0.06968     1.77204     2.18492
H     -0.34060     0.85462     2.36384
O     -1.30476     2.38453     1.78847
H     -0.94592     2.98391     1.10570
O     -0.69960    -0.75836     3.03140
H     -0.99030    -0.78920     3.94739
O      0.05317    -1.95974     2.91664
H      0.89372    -1.60349     2.56178
O      1.44393     2.53288     0.15862
H      1.15274     2.14007     1.00625
O      0.24806     3.25195    -0.18700
H     -0.04076     2.77874    -0.99618
O     -0.12569    -1.79631    -3.84998
H     -0.64482    -2.53304    -4.18030
O     -0.77990    -1.55745    -2.60766
H     -1.14568    -0.65101    -2.72554
O     -0.40935     1.88429    -2.38189
H      0.34379     1.25964    -2.35312
O     -1.54355     1.01764    -2.43825
H     -1.90095     1.05355    -1.52980
O     -2.47076     0.62747     0.07242
H     -2.19558     1.28093     0.74620
O     -1.33861    -0.25154     0.10950
H     -1.70186    -1.07021     0.49010
O      2.16894    -1.12364     1.51654
H      1.93528    -1.04206     0.56360
O      2.52050     0.21863     1.83206
H      3.47846     0.16263     1.88348
O      1.82006     0.57093    -1.64684
H      1.85088     1.18771    -0.88855
O      1.62589    -0.69314    -1.02601
H      0.79792    -1.01661    -1.42097
O      0.07856    -3.08554     0.29530
H     -0.01121    -3.05522     1.25661
O     -1.29563    -3.11416    -0.09497
H     -1.20717    -2.82830    -1.01320
