 28
-1061.6397241040368
O     -0.73742     1.64179     1.43052
H     -0.49102     1.69194     2.37393
O     -2.03446     1.04441     1.54380
H     -1.84533     0.17734     1.13298
O      1.10436     0.23660     3.87820
H      0.87710    -0.21135     3.05237
O      0.11269     1.26229     3.92588
H     -0.49332     0.93878     4.60214
O      0.94936    -1.64342    -1.29619
H      0.58096    -1.73166    -2.20237
O      1.91816    -0.60075    -1.45166
H     -1.70286    -1.99825    -2.11255
O      0.54066     1.65145    -2.19505
H      1.03009     0.83685    -1.97560
O     -0.69811     1.46083    -1.50172
H     -0.55304     1.94479    -0.67686
O     -1.92700    -0.78295    -0.85745
H     -1.53869     0.06613    -1.15521
O     -1.08344    -1.07047     0.26180
H     -0.24953    -1.30478    -0.20458
O     -0.46795    -1.91574    -3.51443
H     -0.43708    -2.43901    -4.32182
O     -1.36514    -2.69062    -2.71083
H      2.01459    -0.33520    -0.51819
O      2.32945     1.39617     1.25066
H      2.45319     1.33777     2.20789
O      1.46473     0.28423     1.01637
H      0.58832     0.73177     0.96475
