 32
-1213.308801278455
O      2.31228     2.40433    -0.21102
H      2.31117     3.35853    -0.07701
O      2.00222     2.27939    -1.59771
H      1.05998     1.99809    -1.56474
O     -2.85775    -0.63749     0.28082
H     -3.57247    -1.06920     0.75894
O     -2.00551    -0.24196     1.35667
H     -1.28856    -0.92725     1.33082
O     -0.94519    -3.00701    -2.05040
H     -1.14556    -2.11897    -1.71354
O      0.08038    -3.44835    -1.16509
H      0.89990    -3.15810    -1.59578
O      2.02388    -0.63809    -1.25291
H      2.81841    -0.11342    -1.42135
O      2.52973    -1.93912    -0.94170
H      2.20714    -2.01869    -0.02145
O      0.60675     1.51824     2.40587
H     -0.27294     1.90484     2.29575
O      0.73454     0.81398     1.17883
H      1.37605     1.37365     0.68629
O     -0.52847    -0.02448    -1.71922
H      0.39964    -0.25685    -1.52215
O     -0.49507     1.39179    -1.59300
H     -1.07096     1.54321    -0.82719
O     -0.18197    -2.17694     1.14313
H     -0.09732    -2.73714     0.33850
O      1.17048    -1.76952     1.37225
H      1.05249    -0.79398     1.38085
O     -1.92853     2.85280     0.46195
H     -2.76217     3.23113     0.16604
O     -2.23985     2.41370     1.78467
H     -2.29732     1.44746     1.64019
