 32
-1213.3101769885006
O     -0.64617    -1.94191     1.83615
H     -1.05110    -1.05630     1.82223
O      0.06884    -1.86484     3.07631
H      0.87831    -1.39655     2.78626
O      1.04540    -0.57436    -0.35022
H      0.10787    -0.26550    -0.27619
O      0.83911    -1.98792    -0.34876
H      0.31570    -2.10727     0.48268
O     -1.26440    -0.73829    -2.91174
H     -0.52764    -0.19664    -3.25484
O     -0.77587    -2.06803    -3.07987
H     -0.34764    -2.23034    -2.22704
O      0.71633     2.91745     0.07084
H      1.21146     2.19674     0.48826
O      0.15695     2.26542    -1.06912
H      0.78123     2.45208    -1.78877
O     -2.15978     1.06982    -0.23355
H     -1.42732     1.64475    -0.52128
O     -1.52125    -0.20778    -0.35333
H     -1.65970    -0.44354    -1.30526
O      1.91722     0.80157    -2.81547
H      1.67749     0.14845    -2.13913
O      0.90901     0.58550    -3.79440
H      1.40342     0.19065    -4.52136
O      1.71227     1.03052     2.20153
H      0.80245     0.97433     2.53430
O      2.06576    -0.34603     2.05977
H      1.90694    -0.50224     1.10339
O     -1.30080     0.57001     2.38700
H     -2.01268     1.01695     1.90307
O     -1.73624     0.60947     3.75232
H     -1.50321    -0.29366     4.00726
