 36
-1364.968847532894
O      1.66337     0.77583    -1.71386
H      2.39120     0.31045    -1.26790
O      1.55789     1.97190    -0.93956
H      0.83828     1.75181    -0.32946
O     -0.95490    -0.74436    -2.32034
H     -1.01787     0.23509    -2.22434
O     -1.97710    -1.20240    -1.42984
H     -1.46646    -1.34089    -0.60598
O      2.06794     1.13962     2.86227
H      2.51462     0.59943     2.18684
O      2.11802     0.26837     3.99594
H      2.65532     0.78845     4.60132
O     -0.62326     1.17566     2.41089
H      0.32905     1.30431     2.58861
O     -0.69088     1.46604     1.01552
H     -1.61989     1.25584     0.81518
O     -3.27947     1.02346     0.38350
H     -4.05975     0.82968     0.91223
O     -3.72959     0.78124    -0.94552
H     -3.18513     0.00071    -1.18206
O     -0.65912     2.82694    -2.76105
H      0.15108     2.94434    -2.24810
O     -1.32142     1.85005    -1.93961
H     -2.20911     2.21912    -1.82069
O     -0.43104    -1.49823     0.71718
H     -0.02874    -2.37555     0.62308
O     -0.83560    -1.50653     2.09585
H     -0.80463    -0.54858     2.28138
O      2.44704    -0.64246     0.61683
H      1.48068    -0.75695     0.64896
O      2.90918    -1.98635     0.68617
H      2.70592    -2.29786    -0.20892
O      1.20693    -2.28516    -1.79805
H      0.46910    -1.67194    -2.02901
O      0.50165    -3.38974    -1.21305
H      0.39351    -3.98202    -1.96629
