 24
-909.9743692294661
O     -2.30125    -0.56632     1.79550
H     -2.21473    -0.66567     0.81990
O     -3.53192     0.14432     1.91882
H     -4.06063    -0.49770     2.40144
O      1.78924     0.40806    -2.74062
H      2.11157     0.59595    -1.84729
O      1.62658    -1.01165    -2.69266
H      0.69596    -1.10109    -2.42552
O      1.23836    -1.38170     0.68049
H      1.20015    -0.64259     1.31282
O      2.48021    -1.13458     0.02093
H      2.30672    -1.54827    -0.83498
O     -1.62922    -0.40799    -0.77159
H     -1.17093     0.44141    -0.95135
O     -0.65490    -1.38200    -1.15919
H     -0.06778    -1.39371    -0.37498
O      0.89984     1.59425    -0.38463
H      0.41853     1.49273     0.45880
O     -0.21183     1.78967    -1.28643
H      0.22103     1.54337    -2.11650
O      0.72071     0.56374     2.45817
H      1.21335     1.25616     2.90783
O     -0.38056     1.30818     1.93678
H     -1.12505     0.67527     2.05080
