 32
-1213.3166455267879
O      1.30496     1.42107     0.42305
H      1.55252     1.06093    -0.45785
O      0.33022     2.41646     0.08696
H     -0.05778     2.58381     0.98035
O     -0.70222    -1.64819    -0.84168
H     -0.06080    -1.25554    -1.47238
O      0.14549    -2.41005     0.02246
H      0.31473    -1.77538     0.75215
O     -1.24905     1.30529    -1.76884
H     -0.67965     1.79359    -1.13413
O     -0.62557     1.66472    -3.00298
H     -1.38430     1.69399    -3.59193
O     -2.16403     2.42172     1.99345
H     -2.20334     1.69427     1.35812
O     -0.82455     2.33945     2.45816
H     -0.75448     1.42831     2.80841
O      0.96331    -0.39134    -2.49579
H      0.51903     0.42194    -2.81191
O      2.08306     0.15228    -1.78624
H      2.56697    -0.65839    -1.53512
O      3.25818    -2.01017    -0.64330
H      4.10049    -2.46071    -0.75280
O      2.38594    -2.87055    -1.38486
H      1.57822    -2.80500    -0.83534
O     -0.47472    -0.29736     2.81972
H     -1.20607    -0.79480     2.40830
O      0.61876    -0.62776     1.95768
H      0.80494     0.22178     1.49874
O     -2.40385    -0.22418     0.61202
H     -1.79697    -0.71824     0.01654
O     -2.66631    -1.22934     1.58875
H     -3.55844    -0.99641     1.85628
