 16
-606.6339610828097
O     -1.99943     1.70674     1.69695
H     -2.56661     2.26028     2.24390
O     -1.29232     0.96769     2.69932
H     -0.38726     1.25118     2.51843
O      0.88021     0.21381     1.17578
H      0.64305     0.56459     0.29455
O      0.13974    -1.01292     1.19993
H     -0.69640    -0.73482     1.60554
O      0.27383     0.77461    -1.42235
H      0.29321    -0.13475    -1.79273
O      1.43020     1.33300    -2.05369
H      1.02414     2.03693    -2.56689
O      0.50320    -1.77171    -2.15992
H      1.35721    -2.19759    -2.28981
O     -0.08878    -2.54228    -1.11123
H      0.07872    -1.97580    -0.33893
