 36
-1364.9685228528285
O      2.16047     0.42571    -1.04470
H      1.48384     0.95431    -1.51706
O      1.40197    -0.76621    -0.80218
H      1.14831    -0.68082     0.14924
O      2.38796     2.83360     1.15345
H      2.90370     3.23173     1.85974
O      2.69037     1.45677     1.34629
H      2.63812     1.12929     0.42272
O     -1.25699    -3.30481     0.80301
H     -1.42432    -2.42744     1.17802
O      0.09781    -3.18556     0.37188
H     -0.01039    -3.12471    -0.59870
O     -0.22364     2.06354     1.21557
H      0.68324     2.42373     1.18413
O     -1.03770     3.12896     0.70166
H     -0.81006     3.07964    -0.24146
O     -0.30581    -2.75304    -2.24121
H     -0.71819    -3.29916    -2.91658
O      0.91092    -2.33145    -2.86874
H      1.25218    -1.77358    -2.14094
O     -2.73666     0.76483     2.14865
H     -2.15093     1.47471     1.84565
O     -2.06911    -0.40520     1.68812
H     -1.16630    -0.30611     2.03066
O     -0.09152     2.98374    -1.88813
H     -0.52467     3.30116    -2.68493
O      0.01870     1.58383    -2.15193
H     -0.75884     1.22600    -1.64539
O      0.86811    -0.61001     1.77784
H      1.54869    -0.00844     2.12193
O      1.16411    -1.85024     2.43518
H      0.90052    -2.44805     1.70794
O     -1.94879     0.47364    -0.82562
H     -2.20285     0.11906     0.06516
O     -2.31681    -0.56243    -1.73878
H     -1.46521    -0.99874    -1.86857
