 32
-1213.3159246892683
O      3.78069    -0.85201    -1.25722
H      3.33634     0.00711    -1.38893
O      2.75293    -1.60906    -0.61906
H      2.03577    -1.62497    -1.27194
O     -0.90031    -0.83163     1.23028
H      0.04937    -0.65810     1.43681
O     -0.82489    -2.22633     0.89081
H     -1.65714    -2.30847     0.40893
O      2.28527     0.66805     1.86205
H      1.54326     1.12894     2.27566
O      1.67933    -0.59881     1.60802
H      2.21207    -0.97871     0.87064
O      2.19102     1.32382    -1.54995
H      1.33003     0.87062    -1.66337
O      1.92126     2.08311    -0.37134
H      2.34240     1.54197     0.32433
O     -0.33554     2.04775     1.83509
H     -1.23014     1.86466     2.16366
O     -0.59595     1.90127     0.42419
H      0.28150     2.12939     0.04055
O     -0.08122     0.02243    -1.60043
H     -0.46021    -0.01568    -0.70478
O      0.11595    -1.35510    -1.92016
H     -0.81580    -1.61389    -2.02095
O     -3.18703    -1.48547    -0.60899
H     -3.28403    -0.55693    -0.29520
O     -2.55657    -1.28770    -1.87318
H     -3.28197    -1.39722    -2.49363
O     -2.87327     0.81611     1.70354
H     -2.25740     0.05851     1.66621
O     -3.06933     1.02618     0.29922
H     -2.21419     1.44201     0.07208
