 36
-1364.9739207370096
O      1.36154     2.10314     0.79424
H      1.30476     1.96298    -0.17651
O      1.67115     0.77421     1.22776
H      0.81010     0.47010     1.58861
O     -0.17770    -1.88268    -1.38452
H      0.75326    -1.65692    -1.16049
O     -0.80112    -1.70659    -0.10803
H     -1.22261    -0.81813    -0.20699
O     -0.74621     0.10309     2.11502
H     -1.32595     0.83073     2.40811
O     -0.81186    -0.83956     3.18693
H     -0.90119    -1.64766     2.66928
O      2.19708    -0.99532    -0.67146
H      2.14137    -0.31293     0.04032
O      3.19546    -1.88522    -0.19842
H      2.79135    -2.17042     0.63679
O     -1.18476     2.74031     1.23657
H     -0.20803     2.66612     1.28934
O     -1.56455     2.56143     2.59447
H     -2.28501     3.19285     2.67147
O     -1.79647     0.71254    -0.49520
H     -1.64424     1.50750     0.05154
O     -3.16501     0.85472    -0.87107
H     -3.07052     0.75806    -1.82631
O      2.05425     1.29192    -2.57131
H      2.41441     0.48667    -2.17343
O      0.89092     1.49586    -1.77433
H      0.19176     1.05395    -2.29671
O     -0.92118    -0.04893    -3.16330
H     -0.79582    -0.85061    -2.60462
O     -2.22595    -0.25961    -3.69659
H     -2.04037    -0.23175    -4.63893
O      1.70862    -2.18939     2.03211
H      1.77776    -2.25954     2.98882
O      0.58040    -3.01146     1.73543
H      0.17636    -2.51691     0.99134
