 32
-1213.3094493156111
O      3.08906     0.61494     1.44230
H      3.73297    -0.06467     1.65770
O      2.04368     0.30258     2.36436
H      1.44124     1.05490     2.20869
O      0.19495    -1.75267    -2.62586
H      1.14406    -1.60818    -2.46436
O     -0.11907    -2.88015    -1.80653
H     -0.31472    -2.45625    -0.95688
O      0.41194     2.30028     1.64325
H      0.01645     2.09688     0.75684
O     -0.72618     2.28103     2.50085
H     -0.86168     3.21924     2.66195
O      0.41577     1.94746    -1.74282
H      1.12046     1.28653    -1.60094
O     -0.51548     1.58438    -0.71879
H     -1.15490     1.04237    -1.22615
O      2.42815     0.26630    -1.10252
H      2.70440     0.62697    -0.24250
O      2.30018    -1.11983    -0.79145
H      1.52832    -1.12922    -0.18806
O     -2.39851    -0.39034     1.06862
H     -2.74951    -0.57018     0.17713
O     -2.74803     0.98317     1.23273
H     -1.98612     1.30961     1.73879
O      0.12494    -1.15777     0.75290
H     -0.75796    -0.81686     1.03819
O      0.57715    -1.90744     1.87875
H      1.21337    -1.25855     2.22494
O     -2.92173    -0.92627    -1.57924
H     -3.70067    -0.72640    -2.10700
O     -1.94254    -0.12091    -2.23299
H     -1.28198    -0.79216    -2.51273
