 32
-1213.3106017736593
O      2.39848     0.82065     1.72437
H      2.07494     0.39274     0.90481
O      1.92711    -0.12835     2.68421
H      2.74323    -0.38292     3.12483
O     -0.83025    -2.21572    -1.53895
H     -1.34718    -1.45617    -1.86125
O     -1.44069    -2.50305    -0.27392
H     -0.68018    -2.44559     0.34960
O     -1.56085     0.23464    -2.48637
H     -0.74051     0.50668    -2.92544
O     -1.49971     1.14078    -1.36535
H     -2.06934     0.68685    -0.70684
O      0.29996     3.01337    -0.03086
H     -0.44724     2.78704    -0.60200
O     -0.06778     2.29930     1.15551
H      0.80547     2.10126     1.52691
O      1.04639     1.07405    -2.68274
H      1.57064     0.29539    -2.41267
O      1.92326     2.16089    -2.38358
H      1.68250     2.36140    -1.46654
O      1.53285    -1.02736    -1.20827
H      0.77229    -1.63328    -1.33644
O      0.96282    -0.12799    -0.25755
H      0.39239     0.44455    -0.80241
O     -0.74096    -2.23080     2.62078
H     -1.30923    -1.46797     2.40968
O      0.30029    -2.04011     1.66585
H      0.86314    -1.35230     2.08050
O     -1.93689    -0.01072     1.75250
H     -1.23101     0.58202     1.44423
O     -2.67012    -0.27539     0.55563
H     -2.38206    -1.18906     0.33785
