 20
-758.3080618497887
O     -2.42519    -0.92327     1.68996
H     -1.45974    -0.85797     1.86433
O     -2.42152    -1.36930     0.32957
H     -3.31734    -1.71265     0.24622
O      1.49765     2.15266    -1.12655
H      0.67229     1.70154    -1.39055
O      2.45483     1.11092    -1.36605
H      3.28244     1.58261    -1.22659
O      0.35397     0.91521     1.87488
H     -0.26190     1.08255     1.14104
O      0.19385    -0.49953     2.04424
H      0.77277    -0.84093     1.34067
O      0.67109    -1.61989    -1.12923
H      1.22607    -2.12038    -1.73535
O      1.62046    -1.11695    -0.19358
H      1.88653    -0.25857    -0.59939
O     -1.32670     0.97836    -0.27879
H     -1.90291     0.20946    -0.09981
O     -0.72884     0.63804    -1.53446
H     -0.36996    -0.25266    -1.36232
