 32
-1213.3167278819692
O      1.10468    -0.75256     0.95854
H      1.29493    -1.11423     0.06274
O     -0.26935    -1.09471     1.15051
H     -0.52124    -0.51080     1.89781
O      0.08149    -4.32126    -1.12845
H      0.00238    -5.16077    -1.59009
O     -0.08514    -3.40656    -2.21463
H     -0.85806    -2.88876    -1.90428
O     -1.66405    -1.57580    -1.05678
H     -1.15817    -1.34572    -0.24545
O     -1.47716    -0.43692    -1.89638
H     -0.52595    -0.48926    -2.12872
O     -1.12439     1.78108     2.47323
H     -1.60534     1.56546     1.63940
O     -1.13674     0.50527     3.12611
H     -0.73766     0.72571     3.97359
O      1.68299     1.66714    -0.76992
H      1.70355     1.74619     0.22108
O      0.70690     2.65024    -1.10076
H      1.18684     3.47175    -0.96495
O      1.17991    -0.48741    -2.34860
H      1.49506     0.29748    -1.86290
O      1.73614    -1.53158    -1.53542
H      1.24239    -2.30440    -1.88267
O      1.85135     1.17135     2.65069
H      1.64097     0.39988     2.09400
O      1.41493     2.21837     1.77944
H      0.47132     2.26893     2.02418
O     -1.89992     2.47433    -0.34251
H     -0.95888     2.44094    -0.58097
O     -2.11904     1.14463     0.12886
H     -2.10559     0.61019    -0.70062
