 28
-1061.6449021539054
O     -1.19281    -1.56463    -2.36275
H     -0.98436    -0.60879    -2.41838
O     -0.01235    -2.11966    -2.95001
H     -0.36612    -2.90406    -3.37809
O      1.11863     0.50710     2.71246
H      1.55518     0.94855     1.96727
O      1.09177    -0.84622     2.27514
H      0.14913    -0.97828     2.05782
O     -2.18127    -0.41060     0.64753
H     -2.04608     0.26389     1.34523
O     -1.23471    -1.39822     1.07387
H      0.87232    -1.76165    -1.52089
O     -1.56757     1.61334    -1.29060
H     -1.94476     0.84016    -0.84016
O     -0.55880     1.00289    -2.09018
H      0.26401     1.33939    -1.68267
O     -0.98129     2.66293     1.55322
H     -1.15290     2.38652     0.64105
O     -1.35316     1.50451     2.29632
H     -0.49582     1.23859     2.68069
O      1.98025    -2.12084     0.01504
H      1.82144    -1.78210     0.91361
O      1.05258    -1.28775    -0.68001
H     -0.82539    -1.64556     0.23322
O      1.77214     1.87257    -1.05530
H      2.58435     1.99068    -1.55806
O      2.17814     0.98822    -0.01311
H      1.81241     0.13208    -0.33357
