 24
-909.9752776721621
O     -2.11748    -0.00699    -1.36492
H     -2.36840     0.64774    -0.69208
O     -2.51714    -1.25025    -0.79376
H     -2.15852    -1.18839     0.10389
O      1.10236    -2.51712    -0.32361
H      0.65477    -1.87212     0.24599
O      2.04036    -1.70202    -1.01752
H      1.45830    -1.19433    -1.62328
O      2.96417     0.00367     0.77520
H      2.68084    -0.74050     0.18877
O      3.06245     1.04665    -0.19845
H      3.96425     0.95737    -0.52255
O     -3.46325     1.16543     1.99023
H     -3.75906     2.01334     2.33278
O     -2.40585     1.57667     1.11540
H     -1.61582     1.29016     1.60569
O      0.42900     0.63472     1.98501
H      1.36949     0.48307     1.79521
O     -0.19362    -0.18866     1.00347
H     -0.06250     0.35236     0.19561
O      0.59796     1.11582    -1.17251
H      1.55952     1.07150    -0.98305
O      0.41702     0.07794    -2.14429
H     -0.54161    -0.08847    -2.01413
