 28
-1061.6422475682198
O      2.29289    -1.06423    -0.82794
H      2.55923    -0.25833    -0.35233
O      1.57963    -0.47111    -1.92347
H      0.98967    -1.21051    -2.15020
O      0.00107    -0.63671     1.07911
H     -0.17751    -1.35722     0.43700
O      0.84496    -1.25424     2.04034
H      1.62501    -0.69472     1.94497
O      0.23051     2.11424    -0.14023
H     -0.53887     1.99724     0.45129
O     -0.18372     1.45172    -1.33191
H      0.47725    -3.33417    -1.61403
O     -2.21865    -0.27778    -1.51314
H     -1.59129     0.47409    -1.48784
O     -3.36286     0.23267    -0.83510
H     -3.05470     0.28641     0.08395
O     -1.73619     1.89241     1.65429
H     -1.85403     2.19055     2.56124
O     -2.26851     0.56819     1.69064
H     -1.43388     0.05866     1.59265
O     -0.87415    -2.40140    -0.73017
H     -1.54509    -1.76285    -1.06673
O     -0.05786    -2.58643    -1.89218
H      0.55555     0.82345    -1.50250
O      2.68951     1.30694     0.42089
H      1.80962     1.71956     0.26893
O      2.71548     1.23230     1.84486
H      3.56726     1.63477     2.03489
