 24
-909.9792121257186
O     -2.72507     0.87601     0.83010
H     -2.44397     0.47299    -0.00804
O     -2.65714    -0.29909     1.65024
H     -1.81544    -0.14849     2.12086
O      0.74670    -0.74871    -2.45974
H      1.10379    -1.24667    -3.20149
O      0.54908     0.54488    -3.02805
H      0.62326     1.08702    -2.22414
O      2.93437    -0.81550    -0.41448
H      2.14260    -0.84512    -0.96364
O      2.58139     0.20122     0.52456
H      2.08987    -0.31388     1.19913
O     -1.11719    -1.72790    -0.15116
H     -1.91640    -1.74411     0.39722
O     -1.42434    -0.57925    -0.96674
H     -0.75212    -0.66701    -1.66392
O      0.59398    -1.00156     1.80770
H      0.00698    -1.24881     1.06591
O     -0.10712     0.07496     2.42931
H      0.12053     0.83146     1.85466
O      0.65716     1.67614    -0.52715
H      1.45664     1.24143    -0.14767
O      0.00627     2.08775     0.67471
H     -0.93017     1.97848     0.45546
