 24
-909.9765259356352
O     -1.38268    -0.89448     0.25952
H     -2.24316    -0.49797     0.02768
O     -1.75097    -2.07637     0.97715
H     -1.30679    -1.90352     1.81550
O      0.51266    -1.01987    -1.58861
H     -0.11404    -0.99581    -0.83351
O      0.08518     0.11758    -2.34641
H      0.62332     0.81805    -1.93303
O      3.07836    -0.66269    -0.88524
H      2.16236    -0.80132    -1.20571
O      2.86758     0.12329     0.28655
H      2.36410    -0.46700     0.86597
O     -3.20669     0.74692    -0.79876
H     -3.95243     0.93718    -1.37655
O     -2.16833     1.56122    -1.33497
H     -1.66152     0.92335    -1.86615
O      0.82638    -0.60141     2.25550
H      0.42880     0.21093     1.90341
O      0.00150    -0.83835     3.39561
H      0.64598    -0.79037     4.10812
O      1.14843     1.89914    -0.63890
H      1.91684     1.38207    -0.30695
O      0.20319     1.63714     0.40901
H     -0.62741     1.82097    -0.05212
