 16
-606.6413372553086
O     -1.69654    -0.38994     1.37712
H     -2.50022    -0.32916     1.90328
O     -1.54762     0.95909     0.91206
H     -1.68481     0.82978    -0.04379
O      1.73129     1.25889     0.25162
H      1.99838     0.32760     0.27983
O      1.37977     1.51251     1.61603
H      0.41350     1.52438     1.56467
O      1.48066    -1.57256    -0.61893
H      1.32735    -1.10632    -1.45287
O      0.15788    -2.07234    -0.36654
H     -0.09644    -1.56461     0.41717
O     -1.21216     0.09472    -1.71442
H     -1.06406    -0.83574    -1.48499
O      0.10878     0.50454    -2.08567
H      0.39274     1.01574    -1.31228
