 40
-1516.645801148032
O      2.67536     1.71897     2.39363
H      2.43981     2.00107     1.50081
O      2.69556     0.29983     2.26185
H      1.81785     0.06409     2.62057
O      0.96981     2.46231    -1.36693
H      0.04839     2.32680    -1.64809
O      0.90190     2.13191     0.01626
H      0.86961     1.14718    -0.02523
O     -2.13972    -0.15387     0.09412
H     -1.82048    -1.08255     0.11394
O     -2.12811     0.21286     1.47419
H     -2.02800     1.19119     1.39083
O      0.19185    -0.56047     2.60437
H     -0.69922    -0.34606     2.25225
O      0.14277    -1.98558     2.72012
H      1.05542    -2.22605     2.48678
O     -1.46915     2.73844     1.06512
H     -0.53693     2.63962     0.77773
O     -1.91771     3.78568     0.19646
H     -2.37517     3.26229    -0.48522
O     -1.09930    -2.61836     0.42675
H     -0.70884    -2.56536     1.32260
O      0.01716    -3.02089    -0.36558
H     -0.18346    -2.57885    -1.20947
O     -2.79774     1.83415    -1.47823
H     -2.68515     1.10270    -0.83486
O     -1.71814     1.55317    -2.37668
H     -1.86182     0.61221    -2.58334
O      2.81612    -1.74723     0.44143
H      3.01648    -1.11990     1.16110
O      2.21063    -2.83147     1.14627
H      1.50118    -3.06733     0.51642
O      1.79545     0.05079    -2.15436
H      1.81495     1.01524    -2.04150
O      1.12132    -0.26484    -0.93505
H      1.74289    -0.91467    -0.51761
O     -0.52087    -1.68512    -2.68256
H      0.03466    -0.89202    -2.66498
O     -1.81823    -1.13320    -2.85294
H     -2.07288    -1.49712    -3.70552
