 24
-909.9763746755164
O     -1.66996    -0.62457     0.91862
H     -0.86294    -0.69589     1.47200
O     -1.72665     0.76695     0.58832
H     -1.29866     0.77537    -0.28620
O     -0.27308     0.77885    -1.68957
H      0.59970     0.44428    -1.35499
O     -0.00478     2.13942    -2.00065
H     -0.02136     2.11962    -2.96215
O      1.85007    -0.38967    -0.63142
H      2.10269    -0.10049     0.26506
O      1.52814    -1.76582    -0.36374
H      0.67689    -1.86872    -0.82729
O     -1.00878    -2.01419    -1.27032
H     -1.46451    -1.59599    -0.50940
O     -1.88109    -1.69291    -2.34603
H     -1.46361    -0.88848    -2.67760
O      0.62416    -1.26138     2.18021
H      0.96701    -1.90095     1.53894
O      1.62454    -0.24511     2.03111
H      1.12430     0.56565     2.23492
O      0.90044     2.26735     0.84102
H      0.30416     2.78194     0.27798
O      0.12637     2.02722     2.01998
H     -0.70126     1.66158     1.63903
