 24
-909.9834833131113
O     -2.64225    -0.24592     0.52340
H     -2.33736     0.06156    -0.35470
O     -2.43268    -1.64546     0.37785
H     -3.32773    -1.99138     0.29548
O      0.09917    -2.25283    -0.36098
H     -0.83233    -2.03531    -0.17330
O      0.28849    -1.70425    -1.66233
H      1.15728    -1.28026    -1.57558
O      2.08886     0.50971    -1.41531
H      1.25891     0.98780    -1.59224
O      2.43321     1.05593    -0.13667
H      2.36764     0.25374     0.42040
O     -1.33469     0.41433    -1.71091
H     -0.73458    -0.34725    -1.83938
O     -0.40877     1.48728    -1.53399
H     -0.66646     1.80867    -0.64747
O      0.77917    -0.64412     2.28452
H      0.98745     0.29320     2.37652
O      1.77311    -1.05793     1.34165
H      1.23635    -1.64975     0.77854
O     -0.83597     1.98896     1.04317
H     -1.19322     1.14890     1.37127
O      0.41406     2.10696     1.71234
H      1.03725     2.04407     0.97178
