 24
-909.9747101894715
O     -0.71698    -0.96311     1.76301
H     -0.76720    -0.04923     1.44448
O     -1.91018    -1.54733     1.24861
H     -1.61657    -1.88340     0.37920
O     -0.99684    -2.25806    -1.21618
H     -0.05723    -2.34120    -0.99698
O     -0.99648    -1.05482    -1.99386
H     -1.48409    -0.45444    -1.40337
O      0.67943     1.52594     1.51976
H      1.11083     1.86385     0.71148
O      1.76197     0.81719     2.12414
H      1.37746     0.57132     2.97262
O     -1.43791     2.01768    -0.60036
H     -0.82419     1.80361    -1.31809
O     -2.22116     0.83154    -0.56786
H     -3.10693     1.15275    -0.76878
O      1.33390    -2.05714     0.51013
H      0.59042    -1.78026     1.08760
O      1.76460    -0.78809     0.00844
H      1.92671    -0.28672     0.83232
O      1.74741     2.12388    -0.85166
H      2.63031     2.19264    -1.23229
O      1.09239     1.18124    -1.69831
H      1.21829     0.35215    -1.18838
