 36
-1364.9797753047421
O      1.31357     2.62040     0.56592
H      2.17992     2.38602     0.96057
O      1.64581     2.80565    -0.81480
H      0.80335     2.53606    -1.23037
O     -2.44968    -2.47205    -2.78438
H     -2.19578    -2.39552    -3.70999
O     -2.54309    -1.09960    -2.41723
H     -3.12469    -1.15948    -1.63530
O      2.46485     1.40365     2.99971
H      2.37866     0.46310     2.73532
O      3.39311     1.83860     2.01077
H      4.14063     2.12890     2.53985
O     -0.28882     0.46772    -1.91341
H     -1.11664    -0.02438    -2.07450
O     -0.74001     1.80245    -1.66140
H     -1.15566     1.68859    -0.78170
O     -2.96363    -1.27182     0.91019
H     -2.31515    -1.91273     0.53190
O     -3.92703    -1.21552    -0.13992
H     -4.64831    -1.74326     0.21743
O     -0.52526     1.00789     1.64231
H      0.10596     1.64484     1.24225
O     -1.62947     1.12273     0.74304
H     -2.11989     0.29569     0.90742
O      1.97937     0.03282    -0.59268
H      1.15518     0.07087    -1.12367
O      2.94669     0.52384    -1.50957
H      2.76365     1.47211    -1.42259
O      2.09809    -0.97071     1.84284
H      2.12740    -0.66014     0.90830
O      0.73166    -1.34757     1.97767
H      0.28306    -0.47948     2.00190
O      0.01741    -2.20857    -0.47391
H      0.25952    -2.07896     0.46755
O     -1.26606    -2.83376    -0.37936
H     -1.51362    -2.86347    -1.31964
