 32
-1213.3152831567384
O     -1.71986    -2.22154    -0.81338
H     -1.59339    -1.83042    -1.69647
O     -0.40773    -2.73433    -0.55954
H     -0.17450    -2.21174     0.23225
O      0.07257    -0.93212     2.75054
H     -0.89742    -0.90104     2.74730
O      0.26094    -1.04256     1.34109
H      1.08615    -0.53450     1.18401
O     -0.89109     0.30291    -3.67516
H     -1.17813     0.83984    -2.92576
O     -0.99594    -1.01388    -3.13399
H     -0.09947    -1.35525    -3.29653
O      0.57246     1.70622     2.85211
H      0.39495     0.75065     2.95965
O     -0.67290     2.15236     2.30653
H     -0.41377     2.39592     1.39566
O      0.03832     2.47752    -0.26711
H      1.00187     2.40328    -0.15985
O     -0.24088     1.20918    -0.85099
H     -0.93724     0.83286    -0.26198
O      1.55577    -1.67018    -2.47028
H      1.21635    -2.16731    -1.71001
O      2.00563    -0.45308    -1.88381
H      1.20683     0.09843    -1.90967
O      2.47207     0.28215     0.74287
H      2.61227     0.14836    -0.21177
O      2.39951     1.70702     0.84761
H      1.94747     1.78444     1.70885
O     -2.21928     0.05410     0.47857
H     -2.16627    -0.89542     0.22927
O     -2.28518     0.02763     1.90274
H     -1.89988     0.90013     2.10024
