 36
-1364.9800070458277
O      3.22775     1.61696    -0.78922
H      4.07107     2.06138    -0.91017
O      2.44966     2.21199    -1.82764
H      2.10877     1.39973    -2.26429
O     -0.07961     0.39575    -3.13431
H     -0.66025    -0.07819    -2.49707
O      1.23748     0.03181    -2.70459
H      1.10978    -0.79279    -2.18202
O     -0.09231     0.03109     3.24538
H      0.70467     0.47163     2.91433
O      0.42811    -1.14448     3.86688
H      0.06141    -1.83771     3.30198
O     -2.77902     0.57078    -1.23093
H     -2.29441     1.40190    -1.39248
O     -1.70307    -0.37578    -1.21511
H     -1.50899    -0.37867    -0.25132
O     -1.01855     2.64993    -1.94495
H     -0.59293     1.99570    -2.53476
O     -0.13450     2.66248    -0.82021
H      0.72585     2.89248    -1.21473
O     -1.86595    -0.59228     1.38904
H     -1.31454    -0.23809     2.12944
O     -3.20025    -0.30806     1.79658
H     -3.49512     0.14834     0.99763
O      0.76036    -2.06878    -1.11318
H     -0.05958    -2.46633    -0.75069
O      1.49764    -1.84870     0.09155
H      1.20082    -0.94430     0.32779
O      1.60713     1.39189     1.35147
H      2.26894     1.48238     0.64225
O      0.65321     0.60487     0.63293
H      0.18889     1.30644     0.12274
O     -0.09278    -3.21269     1.70734
H      0.74138    -2.95068     1.27465
O     -0.99396    -2.98983     0.61592
H     -1.51773    -2.24689     0.96236
