 40
-1516.6445473354147
O     -0.35932     1.41588    -0.13243
H      0.15919     2.12564     0.31571
O     -1.66821     1.66483     0.38645
H     -1.95045     0.74138     0.56636
O      1.95651    -1.00631     0.20058
H      1.88650    -1.28791    -0.73766
O      0.58522    -0.98954     0.58018
H      0.25833    -0.11136     0.26523
O      1.00534     3.40209     2.55064
H      0.75261     2.50756     2.83806
O      1.15091     3.20280     1.14333
H      2.09315     3.00278     1.04226
O      3.14194     1.40656     0.07146
H      2.77735     0.50286     0.18184
O      3.21619     1.50271    -1.34656
H      4.16272     1.44811    -1.51028
O     -1.34390     0.13545    -3.40553
H     -0.42651     0.19044    -3.07259
O     -2.12067     0.51184    -2.26188
H     -1.55228     1.12911    -1.77739
O     -0.61119    -2.59319    -2.27022
H     -1.15404    -2.33049    -1.50408
O     -1.56080    -2.57618    -3.33576
H     -1.58447    -1.62350    -3.53878
O     -2.45204    -0.79317     0.89945
H     -1.95662    -1.33777     1.54905
O     -2.21917    -1.49588    -0.31895
H     -2.64168    -0.89951    -0.95465
O      1.63222    -1.21429    -2.43141
H      0.79396    -1.73376    -2.51876
O      1.13950     0.12732    -2.39796
H      1.92674     0.62166    -2.09343
O     -1.23061    -2.26386     2.76087
H     -1.29790    -3.20735     2.93933
O      0.15780    -2.00278     2.95262
H      0.40681    -1.77072     2.03304
O     -1.29784     1.07674     3.25453
H     -1.45260     1.58806     2.44818
O      0.11616     0.87243     3.18525
H      0.20706    -0.05276     3.46407
