 24
-909.9716594095827
O     -1.23931     1.26495     2.22620
H     -1.79152     1.89550     2.70033
O     -2.08043     0.10792     2.19584
H     -2.21698     0.01307     1.23919
O      1.13704    -0.90144    -1.95561
H      0.17229    -0.74837    -2.00559
O      1.63912     0.07618    -2.86943
H      1.45852     0.89279    -2.37944
O      1.39676     0.49400     1.01214
H      1.11487    -0.27666     1.53516
O      2.47320    -0.04857     0.23460
H      1.99935    -0.38536    -0.55645
O     -1.46049    -0.12817    -1.68861
H     -1.17097     0.72959    -1.31600
O     -1.95614    -0.80052    -0.52847
H     -1.21360    -1.37100    -0.27988
O      0.15810    -1.64803     2.20954
H     -0.69250    -1.32573     2.54283
O     -0.27673    -2.57183     1.20884
H      0.14859    -3.38257     1.50497
O     -0.14949     1.92520    -0.56243
H      0.39852     1.45525     0.11735
O      0.87214     2.30579    -1.48198
H      0.52380     3.14215    -1.80155
