 36
-1364.9766086910597
O      0.90831     2.48850     0.85090
H      1.28107     2.75561    -0.00973
O      2.02653     2.08835     1.62565
H      1.72783     1.21695     1.92636
O     -0.11349    -2.00207    -2.29019
H      0.49927    -1.23743    -2.24703
O     -1.36911    -1.38297    -2.03528
H     -1.53153    -1.60907    -1.08934
O     -0.63960    -0.74666     2.64881
H     -0.84582     0.21228     2.78738
O      0.78159    -0.71876     2.44952
H      0.90221    -1.57173     2.01052
O      1.54754    -2.59780     0.28564
H      2.35030    -3.12760     0.28423
O      0.57566    -3.50625    -0.20915
H      0.31867    -3.05018    -1.04275
O     -0.98304     1.86669     2.58537
H     -0.35262     2.29376     1.96630
O     -2.22726     2.01455     1.89815
H     -2.04427     1.56605     1.05569
O     -1.34639     1.23464    -1.82335
H     -1.39193     0.30263    -2.13977
O     -1.28973     0.99250    -0.41810
H     -0.33917     1.04274    -0.21217
O      1.71851    -0.18056    -1.82974
H      1.63474     0.73626    -2.14124
O      1.46710    -0.03743    -0.42801
H      1.46892    -0.97522    -0.16486
O      0.92947     2.32830    -2.66123
H      0.00807     2.11976    -2.37998
O      1.35402     3.27930    -1.69039
H      1.19907     4.12280    -2.12441
O     -1.88682    -3.24352     0.97485
H     -1.03304    -3.58569     0.68077
O     -1.77174    -1.90195     0.50489
H     -1.46256    -1.42324     1.30880
