 16
-606.636437765134
O     -2.23234     0.07698     0.78739
H     -2.88899    -0.09162     1.46969
O     -1.01615    -0.11451     1.51690
H     -0.58571     0.74399     1.38257
O      0.70612     2.08178     0.72616
H      0.89866     1.54827    -0.07578
O      1.79082     1.67865     1.57453
H      2.39353     2.42285     1.47503
O      1.19855     0.21848    -1.15370
H      0.47626    -0.43824    -1.19565
O      2.25923    -0.54753    -0.56791
H      2.23985    -0.22031     0.34181
O     -0.95093    -1.44437    -1.08980
H     -1.54492    -1.02340    -0.44143
O     -1.77345    -1.51910    -2.25662
H     -1.74395    -2.46439    -2.42913
