 28
-1061.6506197937458
O      0.13112    -2.96203    -0.71227
H      0.90688    -2.63624    -0.22229
O     -0.91705    -2.79662     0.24722
H     -1.62375    -2.51580    -0.35211
O     -0.55530    -1.04790    -2.41818
H     -0.11805    -1.81284    -2.00122
O     -1.78094    -1.07915    -1.67171
H     -1.88139    -0.14609    -1.40528
O      0.09598    -0.23728     2.51897
H      0.92238    -0.66272     2.22800
O     -0.70288    -0.29970     1.33762
H      3.29750    -1.09962     1.71534
O     -0.34549     3.25420     1.51884
H     -0.73543     3.19862     0.62860
O      0.62732     2.20665     1.43645
H      0.31228     1.55814     2.09475
O     -2.11397     1.37766    -0.63138
H     -1.77651     1.13587     0.24604
O     -1.38552     2.57339    -0.90835
H     -0.59995     2.20507    -1.36352
O      2.22562    -1.57254     0.24690
H      1.92016    -0.68630    -0.05785
O      2.37860    -1.37384     1.64217
H     -0.73466    -1.25249     1.12007
O      1.44067     0.78602    -0.65197
H      1.12366     1.41129     0.03992
O      0.73281     1.22059    -1.81219
H      0.31812     0.38843    -2.12292
