 36
-1364.9750361885126
O      1.04944    -1.14390     1.64097
H      0.07637    -1.28537     1.62682
O      1.16630     0.17709     2.19129
H      2.12797     0.33440     2.04098
O     -2.65518     1.21652     0.70125
H     -2.16621     1.19036     1.54322
O     -1.56530     1.18198    -0.22576
H     -1.75032     1.94031    -0.80261
O      1.61246    -2.27993    -1.47318
H      0.80977    -1.89963    -1.87253
O      2.13299    -1.15443    -0.76749
H      1.72506    -1.26789     0.12172
O      1.00563     1.60228    -0.44231
H      0.10844     1.26876    -0.23785
O      1.22832     1.07851    -1.75358
H      1.68116     0.22925    -1.51196
O     -0.64189    -1.14125    -2.53728
H     -0.84473    -0.28570    -2.97042
O     -1.87930    -1.41898    -1.88745
H     -1.92656    -0.67531    -1.26543
O     -1.63197    -0.25368     3.73850
H     -1.77971     0.09838     4.62107
O     -1.24976     0.92466     3.03086
H     -0.31714     0.70011     2.82063
O     -1.52999     1.19679    -3.40037
H     -1.67238     1.53920    -4.28761
O     -0.92155     2.30485    -2.73692
H     -0.05295     1.91422    -2.51141
O      3.50073     1.65703     0.57433
H      2.57645     1.63920     0.26064
O      3.61381     0.40863     1.26111
H      3.70611    -0.22361     0.53620
O     -1.54455    -1.59424     1.22316
H     -2.28175    -1.59159     1.85038
O     -1.53868    -2.92858     0.70745
H     -1.70462    -2.74801    -0.23140
