 40
-1516.6319593036912
O      2.46995     1.85717    -1.35989
H      3.04080     2.29527    -2.00007
O      2.85585     2.46033    -0.11492
H      2.09252     2.16572     0.41986
O     -0.88513    -1.05799    -0.31512
H     -0.85964    -0.23791    -0.84611
O     -2.28094    -1.29034    -0.10522
H     -2.34503    -1.06611     0.83695
O     -1.96988     1.70854     0.56967
H     -2.53920     1.82028    -0.22435
O     -2.80728     2.19205     1.62162
H     -2.70656     1.46979     2.25734
O      0.63877     1.37458     0.90076
H     -0.34535     1.45900     0.87225
O      0.86268     0.87266     2.22210
H      1.16531    -0.03619     2.02333
O     -3.36286     2.14300    -1.68358
H     -4.15698     2.68109    -1.75801
O     -2.44136     2.85960    -2.52619
H     -1.68504     2.25109    -2.47492
O     -0.25027     1.35321    -2.00892
H      0.48175     1.96344    -1.82251
O      0.31401     0.52806    -3.03901
H      0.82630    -0.13295    -2.52578
O      2.66023    -0.75493    -0.73969
H      2.58968     0.20529    -0.91225
O      1.82534    -1.30425    -1.77306
H      1.45288    -2.09215    -1.32803
O      1.15046    -1.73514     1.71804
H      0.64664    -1.83952     0.88953
O      2.41037    -2.31164     1.39260
H      2.67150    -1.75672     0.62579
O      1.03966    -4.66618    -0.08469
H      1.55011    -4.33601     0.66871
O      0.63784    -3.41954    -0.65926
H     -0.32534    -3.47865    -0.67872
O     -1.44743     0.13095     3.41254
H     -0.62458     0.50681     3.03510
O     -1.57705    -1.12414     2.73825
H     -0.67370    -1.47830     2.73606
