 24
-909.9777712591643
O     -1.19437    -0.65314     1.41460
H     -1.65675    -0.41814     0.59459
O     -0.33020    -1.70938     0.98503
H      0.56366    -1.32603     1.10353
O      0.68154    -1.06888    -1.92414
H      0.38075    -0.18962    -1.62698
O     -0.49038    -1.85073    -1.68047
H     -0.40639    -2.00494    -0.71920
O      2.04416    -0.55126     0.81489
H      2.00152     0.20622     0.20652
O      2.47872    -1.63038    -0.00988
H      1.88498    -1.55261    -0.78692
O     -2.58238    -0.06380    -1.19303
H     -1.99413    -0.64778    -1.70470
O     -2.76913     1.02573    -2.09709
H     -3.70016     0.92903    -2.33042
O      1.04530     1.95818    -0.30653
H      0.67165     2.03586     0.60298
O     -0.03151     1.28454    -0.97227
H     -0.58129     1.99068    -1.34326
O      1.16848     1.47808     2.96905
H      1.74540     0.91440     2.43643
O      0.04210     1.62844     2.12058
H     -0.38602     0.75063     2.12813
