 32
-1213.3112973644095
O      1.94745    -0.35527     0.91478
H      1.88246    -0.73898     0.01880
O      2.09430     1.04735     0.68770
H      1.28259     1.40043     1.10164
O     -0.63920    -1.55817     0.09142
H     -1.50886    -1.33763     0.46045
O     -0.95341    -1.78755    -1.28381
H     -1.05038    -0.86853    -1.60726
O     -0.86494     0.78409    -2.06523
H      0.07480     1.07886    -2.09894
O     -1.40002     1.65550    -1.06555
H     -2.25694     1.24033    -0.87846
O     -0.37071     1.98805     1.37124
H     -0.76504     1.85001     0.48678
O     -1.36638     1.45048     2.24306
H     -0.87366     0.69331     2.62341
O      1.67135     1.59478    -1.91523
H      1.99823     1.52857    -0.99458
O      2.77861     1.08828    -2.66213
H      2.53622     0.15550    -2.72193
O      1.71744    -1.79621    -1.35984
H      0.76521    -2.01621    -1.46088
O      2.14690    -1.61388    -2.70338
H      2.87528    -2.23869    -2.73194
O     -0.25646    -1.86572     3.10745
H      0.12804    -2.08563     3.96039
O      0.24616    -0.55139     2.92310
H      0.88058    -0.66308     2.17645
O     -3.13288    -0.76861     0.72913
H     -3.97442    -1.13194     1.01640
O     -3.38272     0.62766     0.67490
H     -2.77310     0.94427     1.37418
