 40
-1516.6455408894897
O      3.67406     0.94286     2.86759
H      4.42608     0.57131     3.33791
O      3.97357     0.63221     1.51309
H      3.42888    -0.17449     1.35394
O      1.28567     2.33883     0.36005
H      0.58838     2.40318    -0.32688
O      2.40342     1.88701    -0.40627
H      3.06377     1.72655     0.28873
O     -1.85992     0.17595     1.46423
H     -1.46647     0.54926     2.26848
O     -0.68361     0.10373     0.66168
H     -0.90362    -0.61833     0.04567
O      1.07765     0.30314     3.02188
H      1.98216     0.65362     3.12849
O      0.32383     1.48057     2.76532
H      0.67142     1.76803     1.89987
O     -1.01863     1.49050    -2.41579
H     -0.19836     0.95842    -2.37222
O     -0.71966     2.51761    -1.45722
H     -1.56494     2.49975    -0.96076
O     -0.22272    -3.11482    -0.36302
H      0.24528    -2.62977     0.34818
O     -0.96538    -2.05244    -0.96909
H     -1.81600    -2.47314    -1.19239
O     -2.98752     1.65840    -0.43180
H     -2.68968     1.03770     0.26517
O     -3.39779     0.79321    -1.49518
H     -2.62818     0.88957    -2.08864
O      2.49534    -1.41460     0.73665
H      2.14258    -1.30209    -0.17461
O      1.33847    -1.86100     1.44625
H      1.13885    -1.07942     2.00471
O      1.28196     0.20117    -2.12395
H      1.81502     0.71660    -1.48147
O      1.43165    -1.13827    -1.65846
H      0.51547    -1.48498    -1.67670
O     -3.86131    -1.99893    -1.06292
H     -3.87698    -1.05547    -1.28200
O     -3.44299    -2.54333    -2.31914
H     -4.02031    -3.30948    -2.38220
