 28
-1061.6404532101485
O      0.46959    -0.85245    -3.11215
H      0.30491    -0.66226    -4.04188
O      1.29909     0.24501    -2.72357
H      0.68655     0.78559    -2.17985
O      0.25564    -1.66101     1.94912
H     -0.69916    -1.69316     1.78323
O      0.53409    -0.40556     1.31397
H      1.23293    -0.65454     0.66813
O      0.05719     1.79333     2.68096
H      0.28013     0.90314     2.32768
O     -1.31886     1.60358     3.01753
H      0.81610     2.35447     0.70295
O     -1.64129    -1.12950    -1.48003
H     -0.83003    -1.07889    -2.02079
O     -2.38692    -0.02267    -1.99957
H     -2.52177     0.47035    -1.17994
O     -2.18943     0.34185     0.82877
H     -1.95582     0.71572     1.69883
O     -2.26065    -1.06484     1.10447
H     -2.14213    -1.38106     0.18899
O     -0.00743     1.60714    -0.81905
H     -0.40201     0.97453    -0.18937
O      1.17228     2.02065    -0.13388
H     -1.28957     1.45666     3.96868
O      2.40146    -1.11089    -0.47149
H      2.36706    -0.57045    -1.27882
O      3.75370    -0.96900    -0.03985
H      4.06832    -1.86959    -0.15024
