 32
-1213.3062404034845
O      2.82712    -0.29062     1.68473
H      2.48950     0.45234     1.16478
O      1.63569    -1.03950     1.92177
H      1.39587    -0.75494     2.82771
O     -1.60282    -1.51047    -2.86678
H     -1.65498    -1.68486    -3.81142
O     -0.31090    -0.90736    -2.77561
H     -0.56117     0.03017    -2.58959
O     -0.47459     2.15040    -1.11971
H      0.43550     1.86539    -1.33896
O     -1.20269     1.49999    -2.16162
H     -2.06741     1.30568    -1.73844
O     -3.40604     0.32301    -1.30559
H     -3.19996    -0.56960    -1.60954
O     -3.47722     0.17802     0.11421
H     -2.55377    -0.03265     0.35205
O      2.67507     1.62525    -0.55528
H      3.53676     1.67745    -0.97943
O      1.89779     0.97824    -1.56063
H      1.95660     0.03253    -1.27776
O      2.11776    -1.53234    -0.72935
H      2.44106    -1.71930     0.16545
O      0.82520    -2.15971    -0.67316
H      0.41225    -1.78837    -1.47683
O      0.62927    -0.22908     4.24934
H     -0.03402    -0.69217     4.77065
O     -0.00314     1.02167     3.97091
H     -0.20418     0.91907     3.02322
O     -0.94312    -0.40523     0.83448
H     -0.09340    -0.88376     0.77711
O     -0.51723     0.89843     1.26131
H     -0.64705     1.41732     0.43558
