 32
-1213.3124665801383
O     -0.46856    -0.27955     2.07125
H      0.26002    -0.86535     2.34042
O     -1.42386    -1.20668     1.53516
H     -1.84654    -0.64558     0.85722
O     -0.84206     1.51342    -2.15131
H     -0.36683     2.35516    -2.01275
O      0.23382     0.58577    -2.34158
H      0.70613     0.63564    -1.47875
O      1.72451    -1.70597     2.65654
H      2.54352    -1.55408     3.13427
O      2.14764    -1.47488     1.31770
H      1.69243    -2.21424     0.84581
O      0.20892     3.83428    -1.33613
H     -0.24052     4.68419    -1.34358
O      0.45361     3.62504     0.04813
H     -0.28460     3.02470     0.29895
O      1.32794     0.75458     0.05530
H      1.66461    -0.02066     0.55181
O      2.43845     1.65625     0.15298
H      1.94245     2.48474     0.20657
O     -0.72673    -1.92651    -2.12148
H     -0.48603    -1.01960    -2.40035
O     -2.01677    -1.72548    -1.54490
H     -2.34350    -2.63017    -1.52100
O     -0.42559    -3.54555     0.56981
H     -0.76947    -2.70164     0.91755
O      0.71140    -3.11078    -0.18066
H      0.28582    -2.71399    -0.96851
O     -2.08797     0.99896     0.15885
H     -1.67396     1.11203    -0.72204
O     -1.36836     1.93277     0.96964
H     -0.86319     1.29791     1.51412
