 36
-1364.975732881742
O      1.40950     1.12143    -0.34097
H      2.12125     1.18847    -1.00759
O      2.08292     0.41217     0.69645
H      1.55659     0.65828     1.48941
O     -2.19489    -1.20407     2.12886
H     -1.47786    -1.15170     2.78848
O     -1.40822    -0.98282     0.95329
H     -1.47284    -1.82160     0.46375
O      1.78446    -2.20261     0.35030
H      1.97763    -1.24403     0.47272
O      1.33115    -2.58417     1.64130
H      2.03698    -3.17643     1.91993
O      3.07624     0.85052    -2.40582
H      3.86536     0.75807    -2.95018
O      2.31972     1.83053    -3.12520
H      1.49707     1.32911    -3.26160
O      0.19072    -0.73401     3.30380
H      0.69578    -1.29340     2.68985
O      0.57710     0.57783     2.89660
H     -0.28345     1.03597     2.79209
O     -0.97688     2.39404    -0.27287
H     -0.17124     1.87141    -0.44245
O     -2.01878     1.58434    -0.82072
H     -2.50422     1.35111    -0.00610
O      0.09397     0.17409    -2.92097
H      0.43463    -0.68629    -2.60813
O     -1.30798    -0.07537    -2.80227
H     -1.55373     0.59713    -2.13852
O     -1.57902     2.09080     2.26272
H     -1.26285     2.49913     1.43023
O     -2.74480     1.42986     1.75223
H     -2.60745     0.50518     2.02200
O     -1.17951    -2.37904    -1.49179
H     -1.53221    -1.61500    -1.98588
O      0.19750    -2.21229    -1.83747
H      0.64335    -2.33725    -0.98432
