 20
-758.3091558029511
O     -0.67209    -2.61363     1.19512
H      0.01267    -2.13665     0.69453
O     -1.82055    -2.23602     0.42573
H     -2.39491    -2.99635     0.55084
O      1.17428    -0.92966     0.15988
H      1.67948    -0.51393    -0.57080
O      1.34372     0.04999     1.19539
H      0.51299    -0.05535     1.67912
O      0.18709     2.27006     0.07989
H      0.82298     1.56441     0.28201
O     -0.51824     1.71646    -1.03810
H     -1.16439     1.15106    -0.57021
O      2.39237     0.42282    -1.75468
H      3.08864     0.34924    -2.41321
O      1.21751     0.32400    -2.56195
H      0.62534     0.92676    -2.06814
O     -2.05642     0.41719     0.67375
H     -1.98413    -0.55561     0.67168
O     -1.37061     0.76284     1.88580
H     -1.02939     1.62699     1.61808
