 28
-1061.6439037856721
O      1.51930    -1.83417    -2.85964
H      2.14223    -1.81988    -3.59037
O      1.55266    -0.46961    -2.45072
H      0.62600    -0.18035    -2.58931
O      0.25282     1.28312     1.95400
H     -0.48339     1.10190     2.56201
O      1.12969     0.18961     2.23443
H      1.75531     0.28471     1.48845
O     -1.00165     2.25055    -0.17921
H     -0.53088     1.81119     0.55819
O     -2.35972     1.86345     0.04650
H     -0.73901     1.46324    -1.62770
O      0.24213    -2.69527    -0.14373
H      0.90570    -2.61541    -0.83955
O     -0.03472    -1.31005     0.07485
H      0.14506    -1.18260     1.02202
O     -2.34515     0.72601     2.65577
H     -2.64505     1.15220     1.83780
O     -2.39431    -0.65011     2.26932
H     -3.00143    -1.00460     2.92827
O     -1.74293    -0.11608    -1.56357
H     -1.12250    -0.58772    -0.96657
O     -0.85661     0.74279    -2.28586
H     -2.41811     1.09439    -0.55947
O      2.43202     0.43479    -0.06550
H      2.12018     0.04589    -0.90816
O      3.49215    -0.45061     0.28768
H      4.12660     0.17892     0.63473
