 36
-1364.976844805312
O      2.52644     2.38416     0.56244
H      3.09656     2.97477     1.06563
O      3.48097     1.52752    -0.07712
H      3.09558     0.65907     0.13717
O     -0.87745    -3.05217     2.26735
H     -0.61064    -3.97585     2.23651
O      0.31596    -2.39331     2.67945
H      0.76411    -2.24599     1.81028
O     -2.45871    -1.85581     0.49719
H     -1.88337    -2.19249     1.21007
O     -2.53753    -0.47443     0.84548
H     -2.96083    -0.09352     0.05357
O     -0.31750    -0.99901    -1.71056
H     -0.98854    -0.36719    -2.04290
O     -1.02174    -2.24260    -1.74762
H     -1.60552    -2.15754    -0.96853
O     -3.31705     0.81678    -1.36595
H     -3.93069     1.45883    -1.73012
O     -2.14965     1.01289    -2.15595
H     -1.58087     1.54545    -1.55031
O     -0.26423     1.98110    -0.63631
H      0.56889     2.25935    -1.05958
O     -0.51321     2.93460     0.38690
H     -0.22532     2.42563     1.15777
O      1.20646    -1.88817     0.26972
H      0.62909    -1.60309    -0.47616
O      1.92920    -0.69355     0.57478
H      1.22115    -0.17108     1.01052
O     -0.37659     0.22362     3.11273
H     -0.14025    -0.71102     3.21896
O     -0.17492     0.35800     1.71389
H     -1.05754     0.13536     1.33869
O      3.01457     0.98089    -2.87125
H      3.44423     1.44386    -2.13950
O      1.64222     1.21850    -2.55508
H      1.35207     0.34091    -2.26587
