 20
-758.2996872355583
O      0.41395    -1.87473     1.93329
H      1.06271    -1.83819     1.19512
O      0.26301    -0.48950     2.27759
H      1.17146    -0.16736     2.33193
O     -0.77939    -0.36664    -0.94053
H     -1.67001    -0.13781    -1.24080
O     -0.57169     0.66912     0.03289
H     -0.49155     0.14754     0.86368
O      2.20005    -1.54575    -0.03732
H      2.36633    -0.60245    -0.21923
O      1.47374    -1.95216    -1.19859
H      0.63952    -1.47819    -1.07542
O      2.05110     1.18357    -0.21513
H      1.07191     1.20215    -0.22246
O      2.31433     1.50480     1.15537
H      2.85211     2.29582     1.05869
O     -2.92890     1.27344    -1.69124
H     -2.72876     1.97705    -1.06390
O     -4.29282     0.98137    -1.37406
H     -4.72603     1.22175    -2.20071
