 28
-1061.6396189642894
O     -0.92549    -2.07287    -2.74541
H     -0.57338    -2.34951    -1.88386
O      0.07812    -1.14112    -3.14486
H      0.52471    -1.60053    -3.86564
O      0.73704     1.30698    -0.67146
H      1.66867     0.99182    -0.62595
O      0.50163     1.67331    -2.02877
H      0.16382     0.83304    -2.36615
O      1.31258    -0.17170     2.88495
H      1.64012    -0.06652     3.78336
O     -0.09148     0.00950     3.02861
H     -0.48475    -1.68587     1.71941
O     -0.35491     2.32306     1.51797
H      0.05532     2.01344     0.67373
O     -1.73229     2.36750     1.14805
H     -1.88497     3.30926     1.02464
O     -2.44879     0.26346    -1.52736
H     -2.30042    -0.61654    -1.89510
O     -1.96110     0.05777    -0.19509
H     -1.96844     0.96668     0.16624
O      0.05446    -1.60518    -0.05986
H     -0.62309    -0.88322    -0.09925
O     -0.41757    -2.36992     1.03961
H     -0.20864     0.90734     2.66361
O      2.67030    -0.99786    -0.23079
H      1.73249    -1.27328    -0.16800
O      2.74139     0.16488     0.59302
H      2.24895    -0.08929     1.38953
