 36
-1364.9731245634252
O      1.94209     2.11909     0.40757
H      2.17072     1.47121    -0.28105
O      0.83878     1.43630     0.99009
H      0.06314     1.78071     0.49308
O     -1.48039    -1.66732    -0.77380
H     -0.88923    -1.51610    -0.01355
O     -0.85456    -0.88370    -1.78197
H     -1.20799     0.02532    -1.63510
O     -1.56271    -0.38112     1.67350
H     -1.38372     0.30175     2.35711
O     -2.80073     0.06693     1.09977
H     -2.90047    -0.61836     0.42465
O      1.18267    -2.00170     0.45591
H      0.89840    -2.92856     0.60193
O      1.27033    -1.49627     1.78858
H      1.27935    -0.54478     1.60797
O      0.44402     1.67919     3.59797
H      0.64419     1.63127     2.63607
O     -0.94772     1.33542     3.58864
H     -1.36552     2.15353     3.87403
O     -1.51064     2.06361    -0.13124
H     -2.11090     1.39703     0.26714
O     -1.52018     1.68956    -1.51498
H     -0.71872     2.16533    -1.83245
O      2.13102    -0.07801    -1.11074
H      1.89282    -0.89517    -0.62795
O      1.71890    -0.35432    -2.44944
H      0.79488    -0.63266    -2.30843
O      1.08743     2.12360    -3.49144
H      1.51386     1.32282    -3.13676
O      0.75397     2.80309    -2.28169
H      1.21075     3.64522    -2.37761
O     -0.16422    -4.26626     0.76146
H     -0.17524    -5.18735     1.03666
O     -0.22620    -4.37477    -0.66370
H     -0.86861    -3.67733    -0.84759
