 36
-1364.97668112393
O      2.99250     0.17200    -1.11563
H      2.46264     0.34035    -1.92437
O      3.88833    -0.85970    -1.54284
H      3.30115    -1.63199    -1.52112
O      0.18126    -0.33332    -3.08884
H      0.68921    -1.15707    -3.17987
O      1.23231     0.64254    -3.09521
H      0.77815     1.35913    -2.63586
O     -0.54642     1.16408     2.79037
H     -0.99187     1.72413     2.13394
O     -1.40455     0.01794     2.83833
H     -0.94030    -0.62240     2.26502
O      1.81821    -2.70447    -1.53274
H      1.09522    -2.20432    -1.08901
O      1.39149    -2.71573    -2.89092
H      1.03225    -3.60326    -2.99395
O     -3.92869     1.25129     2.04609
H     -3.25861     0.68834     2.46818
O     -3.24791     2.50892     2.02295
H     -3.77252     3.03194     2.64032
O     -2.78608    -1.01876     0.14997
H     -2.07547    -1.39931    -0.38058
O     -2.92793     0.27163    -0.47016
H     -3.64082     0.63796     0.07459
O      0.25678     1.30888    -0.54440
H      0.94604     1.52753     0.12044
O     -0.88092     1.99432    -0.01198
H     -1.60560     1.36804    -0.21664
O      1.83744     1.26655     1.57417
H      1.12667     1.13141     2.23166
O      2.37036    -0.05311     1.41983
H      2.73172     0.01718     0.50283
O      0.01638    -1.32527    -0.16513
H      0.03431    -0.35043    -0.27782
O      0.18169    -1.51906     1.23707
H      1.05891    -1.09559     1.39633
