 36
-1364.9741381091192
O      3.47900     0.30527     0.53680
H      2.75349     0.73782     0.06433
O      2.76676    -0.71840     1.23150
H      3.11124    -1.53321     0.82266
O     -0.27840    -0.22161     2.20528
H     -1.12776     0.28899     2.23420
O      0.71208     0.78096     1.92328
H      1.52791     0.22988     1.89032
O     -0.64838     3.10236     0.05436
H      0.08987     2.55491    -0.25746
O     -0.49933     3.10843     1.47291
H     -0.01691     2.27233     1.64107
O      1.43552     0.11836    -2.22329
H      1.97756    -0.57616    -1.80636
O      1.00336     0.89123    -1.10621
H      0.21700     0.39475    -0.79938
O     -1.09259    -0.53525    -3.10709
H     -0.14071    -0.39344    -2.94861
O     -1.18302    -1.96053    -3.05442
H     -1.55962    -2.16338    -3.91601
O     -1.91872     0.44959    -0.61216
H     -2.02231     0.19572    -1.54464
O     -2.80933     1.56608    -0.48522
H     -2.16350     2.29251    -0.39650
O     -2.77737     2.31081     2.75730
H     -2.01359     2.76995     2.36522
O     -2.64190     1.01804     2.15502
H     -3.00119     1.15839     1.25702
O      3.16115    -3.07741    -0.04408
H      3.72942    -3.67844    -0.53491
O      2.39475    -2.49033    -1.09848
H      1.52610    -2.39889    -0.65045
O      0.14076    -1.64065     0.03624
H     -0.02327    -1.18508     0.90043
O     -0.95177    -2.55907    -0.06315
H     -1.32039    -2.27699    -0.90913
