 24
-909.9760855687732
O     -1.69525    -2.32113     1.67143
H     -1.97703    -2.92014     2.37016
O     -0.33412    -2.06402     2.04934
H     -0.39760    -1.10305     2.21925
O      1.14091     0.63748    -2.58390
H      0.16517     0.75414    -2.52554
O      1.64178     1.91913    -2.21357
H      1.35173     1.97505    -1.29482
O      1.59093    -0.83195    -0.41996
H      1.53566    -0.36538    -1.28607
O      0.51745    -1.77185    -0.57201
H      0.30202    -1.99114     0.35249
O     -1.51877    -0.59878    -1.88538
H     -0.76729    -1.03415    -1.43846
O     -1.28956     0.77845    -1.57909
H     -1.57056     0.83162    -0.64438
O     -0.88185     0.53139     1.84602
H     -0.22821     1.06229     1.35386
O     -2.04066     0.54816     0.99922
H     -2.25577    -0.39560     0.99774
O      1.14617     1.93760     0.80941
H      1.49705     2.77897     1.11591
O      1.98984     1.00999     1.48569
H      1.95695     0.26995     0.85140
