 32
-1213.3138229968013
O      1.14619    -1.25449     1.87272
H      1.76620    -0.90202     1.20004
O      0.23499    -1.98326     1.03960
H     -0.52309    -2.09341     1.65350
O     -0.83031    -0.64438    -0.94567
H     -0.24786    -1.09569    -0.29196
O      0.05013    -0.31694    -2.01690
H      0.02703     0.65542    -1.93988
O     -1.92001    -2.02527     2.57598
H     -2.12370    -2.33698     3.46617
O     -2.58554    -2.96558     1.73775
H     -3.12507    -2.36300     1.20658
O     -0.51201     0.73530     2.73895
H      0.12931     0.06192     2.43733
O     -1.09865     1.15345     1.51171
H     -1.89927     0.61104     1.44376
O      2.58609     0.01176    -0.00017
H      2.06434     0.84383    -0.00275
O      2.69693    -0.29733    -1.39098
H      1.77387    -0.50267    -1.63875
O      2.66669     2.14128    -3.68586
H      3.38245     2.68688    -4.02559
O      2.89923     2.24019    -2.28131
H      3.10224     1.31046    -2.04900
O      0.90286     2.05748     0.08608
H      0.10577     1.73227     0.57236
O      0.40056     2.23623    -1.24445
H      1.23567     2.47583    -1.68916
O     -3.38911    -1.08143    -0.32347
H     -2.46392    -1.02131    -0.63771
O     -3.52575     0.15388     0.38458
H     -3.55237     0.80361    -0.32240
