 32
-1213.3098205202905
O      1.22627    -0.93956     1.68138
H      0.67297    -1.25324     0.93158
O      0.32803    -0.12018     2.43208
H      0.61218     0.77748     2.16473
O     -1.38240    -1.94586    -0.79212
H     -1.73137    -1.12130    -0.39458
O      0.01368    -1.80628    -0.49754
H      0.36082    -1.38848    -1.31578
O     -1.84744     0.18358     0.70336
H     -1.44571    -0.15843     1.52847
O     -3.24006     0.04898     0.88637
H     -3.30110    -0.84660     1.25148
O      0.84846     2.24693     1.30029
H      1.50465     1.96916     0.61432
O     -0.25289     2.66147     0.49860
H     -0.84641     1.89728     0.54411
O      2.52233     1.22338    -0.42037
H      2.39865     0.79707    -1.28895
O      3.23867     0.22166     0.29993
H      2.53154    -0.15580     0.85891
O      0.77742    -0.56922    -2.74426
H      0.25547     0.25209    -2.83353
O      2.10732    -0.05523    -2.75339
H      2.57670    -0.72252    -3.26372
O      0.34164     2.61265    -2.12210
H      0.17849     2.76172    -1.16721
O     -0.71362     1.69660    -2.42865
H     -1.28425     2.23469    -2.98666
O     -1.92839    -3.41409     1.85236
H     -1.58501    -3.24278     0.96287
O     -1.81777    -2.11553     2.44325
H     -1.06172    -2.19554     3.04246
