 28
-1061.6418888583025
O     -3.81215    -0.36134     1.74991
H     -4.50641     0.21180     2.08592
O     -2.88288     0.61013     1.27310
H     -2.08111     0.38395     1.79751
O      0.44261     0.91181     2.05477
H     -0.07576     1.60961     1.59322
O     -0.50217    -0.16734     2.07347
H     -0.08438    -0.80107     1.45588
O      0.79624    -1.82422     0.45519
H      1.71778    -2.05927     0.25839
O      0.16193    -2.17045    -0.78635
H      3.70740    -3.26785    -0.76270
O      0.25190     3.37222    -0.13105
H      0.92651     2.68642    -0.26610
O     -0.80254     2.62200     0.46809
H     -1.18268     2.15645    -0.30367
O     -1.79746    -0.34574    -0.99090
H     -2.33684    -0.01577    -0.24003
O     -1.26006     0.87519    -1.51440
H     -0.32782     0.63037    -1.63651
O      2.75781    -2.21357    -2.01290
H      1.82571    -2.47924    -1.97018
O      3.15611    -2.48424    -0.67041
H     -0.58043    -1.52931    -0.81514
O      1.96158     1.20315    -0.44548
H      1.63400     0.76747     0.35849
O      1.42294     0.37984    -1.48141
H      2.15838    -0.21519    -1.69250
