 32
-1213.3152077104253
O      4.06612    -0.33474    -0.26767
H      3.52953    -0.69937     0.46680
O      3.35673     0.87752    -0.52723
H      4.03947     1.54545    -0.41079
O     -0.53154    -1.39789    -0.72425
H     -0.68990    -1.23129     0.22420
O      0.71725    -2.08295    -0.70879
H      1.17854    -1.54409    -1.37262
O     -2.85490    -0.55079    -1.79815
H     -2.04385    -1.01654    -1.53231
O     -2.29796     0.62488    -2.39679
H     -2.56028     1.28133    -1.72509
O      0.77060     1.64774     0.67050
H      0.61348     1.44602    -0.27843
O     -0.53579     1.93785     1.16376
H     -0.62831     1.23957     1.82785
O      1.43609     0.03905    -2.15952
H      2.21345     0.40629    -1.69336
O      0.47571     1.06838    -1.89997
H     -0.31279     0.74473    -2.36439
O      1.50511    -0.44436     2.10916
H      1.47765     0.30692     1.48606
O      2.25520    -1.43325     1.40585
H      1.60924    -1.78684     0.75953
O     -1.28446    -0.73109     1.74233
H     -2.23244    -0.53015     1.77214
O     -1.06442    -1.63078     2.82848
H     -0.13861    -1.41112     3.00485
O     -3.46399     0.52565     0.55342
H     -3.55740    -0.03538    -0.23846
O     -2.93469     1.69851    -0.07078
H     -2.07807     1.80209     0.37669
