 40
-1516.6430571145502
O      1.86858     1.93031    -2.17601
H      1.84977     1.10512    -2.69204
O      3.25787     2.18040    -1.98452
H      3.49174     1.49911    -1.33565
O     -0.23592    -1.60851     1.61019
H     -0.33019    -2.30477     0.93829
O     -1.16225    -2.00989     2.62345
H     -1.59467    -1.16050     2.78807
O     -1.54668     1.71091     2.34151
H     -2.46169     1.42473     2.15169
O     -1.15887     0.79225     3.36633
H     -0.18256     0.84319     3.29949
O     -0.16128     1.42552     0.13005
H     -0.60821     1.63261     0.99330
O      1.15502     1.96220     0.34774
H      1.42813     2.11459    -0.59164
O     -3.87711     0.81066     1.26067
H     -4.83542     0.89242     1.28704
O     -3.70645    -0.59360     1.03853
H     -3.21094    -0.59094     0.20134
O     -1.57749    -0.52377    -0.89559
H     -1.01618     0.11054    -0.38936
O     -2.01643     0.29880    -1.97736
H     -1.28049     0.19747    -2.61197
O      1.04704    -0.58553    -3.45019
H      0.71360    -1.34927    -2.92434
O     -0.18641    -0.04000    -3.92267
H     -0.36412    -0.56004    -4.71270
O      1.96773    -0.78743    -0.52602
H      1.28265    -0.12647    -0.33348
O      3.13195    -0.17512     0.02898
H      2.89195    -0.18667     0.98465
O      0.42755    -2.91663    -0.85299
H      1.17490    -2.29251    -0.79905
O     -0.24319    -2.46064    -2.03277
H     -0.91378    -1.85803    -1.63887
O      1.46868     0.95744     2.81596
H      1.53874     1.46400     1.98637
O      1.93067    -0.32338     2.37457
H      1.10046    -0.79825     2.15713
