 32
-1213.3128653467927
O      4.76229    -1.25851     1.35404
H      5.25159    -1.31612     2.17923
O      3.66214    -0.44565     1.74976
H      3.77643     0.33913     1.18226
O     -1.52679     0.30957    -1.59241
H     -0.77095     0.93740    -1.58376
O     -0.90651    -0.94787    -1.32335
H     -1.51198    -1.35055    -0.66591
O     -4.70791    -0.56552    -1.57245
H     -5.43234     0.03758    -1.75891
O     -4.00334     0.15691    -0.57180
H     -3.14058     0.31185    -1.01736
O      0.52340     2.05659    -1.62899
H      1.41448     1.69891    -1.81366
O      0.77304     2.64229    -0.34667
H      0.29272     2.04237     0.26224
O      2.90977     1.00795    -1.22427
H      2.53341     0.17169    -0.88469
O      3.23014     1.70057    -0.01055
H      2.45061     2.28725     0.04570
O      1.22054    -1.30713     0.89754
H      2.09691    -1.16866     1.30332
O      1.54743    -1.14998    -0.48651
H      0.64435    -1.03126    -0.86580
O     -1.60950     0.72073     1.23952
H     -1.86124     0.09690     1.93663
O     -0.20418     0.90820     1.44979
H      0.20084     0.04175     1.22049
O     -2.44753    -2.24379     0.46153
H     -3.00848    -2.95837     0.13758
O     -3.30086    -1.57200     1.38568
H     -3.69085    -0.89938     0.79005
