 32
-1213.3015492450916
O     -0.53784    -3.45349    -1.13925
H     -1.08117    -2.65316    -1.10186
O      0.76429    -2.91415    -0.92229
H      0.94808    -3.16103    -0.00120
O      1.46700     0.19793    -0.88100
H      1.36620     0.44821     0.06924
O      2.47102    -0.81316    -0.82618
H      1.94536    -1.56969    -1.13857
O     -2.21009    -0.02796    -1.80284
H     -2.25487     0.89431    -1.50384
O     -1.51384    -0.62043    -0.71232
H     -0.58620    -0.36524    -0.86086
O     -4.19213     0.61922     0.69537
H     -4.78334     0.16618     1.30409
O     -2.93443     0.40971     1.34015
H     -2.45383    -0.12154     0.67064
O      1.51436     2.52210    -2.24900
H      1.64289     1.61877    -1.91210
O      1.50131     3.22203    -0.99921
H      1.85317     4.08073    -1.24924
O      2.04453    -2.98576     1.55509
H      2.83464    -3.52070     1.67736
O      2.52325    -1.66274     1.79580
H      2.65733    -1.32973     0.88762
O      0.73357     0.80161     1.57054
H      0.04873     1.50829     1.50381
O     -0.03897    -0.31044     2.04774
H      0.66918    -0.85924     2.41166
O     -1.10472     2.59793     0.92972
H     -1.91479     2.09796     1.11876
O     -0.94730     2.32987    -0.47300
H     -0.06136     2.70608    -0.64338
