 40
-1516.6420672354056
O      0.45346     3.86662    -2.53268
H     -0.17973     4.49315    -2.89681
O      0.28014     4.02428    -1.12496
H     -0.36292     3.31685    -0.91829
O      2.06164    -1.38804     1.22401
H      2.35970    -0.46324     1.15643
O      0.64424    -1.23505     1.14236
H      0.47978    -1.22742     0.17040
O      0.29561    -1.29552    -1.50671
H      0.61539    -0.78026    -2.26763
O     -1.06858    -0.85165    -1.42623
H     -1.48216    -1.68749    -1.15634
O     -1.04452     1.82800    -0.33222
H     -0.85867     1.13838    -1.00002
O     -2.46850     1.89278    -0.31997
H     -2.65723     1.06258     0.17887
O      0.49673     1.19369    -2.71190
H      0.55932     2.16902    -2.76083
O      1.87045     0.84098    -2.50553
H      1.97995     1.07233    -1.56656
O      1.84778     1.80031     0.02588
H      1.71847     2.75799    -0.06610
O      2.45321     1.63820     1.30686
H      1.66390     1.52308     1.88349
O     -0.82016     1.59421     2.28181
H     -0.72149     1.65488     1.30944
O      0.30605     0.83005     2.70052
H      0.16938    -0.03387     2.26218
O     -2.91079    -0.05603     2.39884
H     -2.21502     0.62012     2.52102
O     -2.65340    -0.38905     1.03424
H     -2.19208    -1.24561     1.12542
O      1.38590    -3.88021     0.38837
H      1.87518    -3.08564     0.68542
O      1.87045    -4.10827    -0.93362
H      1.36059    -3.46065    -1.43842
O     -1.18412    -3.32930    -0.02404
H     -0.27383    -3.61053     0.22573
O     -1.67231    -2.85376     1.22987
H     -2.23718    -3.57306     1.52647
