 36
-1364.9744455537632
O      3.71627     1.12920    -2.33448
H      4.50353     0.57757    -2.32182
O      3.52222     1.35007    -0.93106
H      2.60273     1.67180    -0.94731
O     -1.06747    -2.71981    -0.16208
H     -0.17143    -2.39741     0.05789
O     -1.51087    -1.76457    -1.13019
H     -2.32947    -1.45358    -0.71402
O     -0.76594    -0.80292     3.72964
H     -1.42091    -1.32734     3.20889
O      0.43443    -1.52361     3.48351
H      0.60435    -1.94135     4.33225
O      0.20051     3.14316    -0.34734
H      0.02780     2.72193     0.50552
O      0.86103     2.07005    -1.03878
H      0.25717     1.92153    -1.79434
O     -1.20382     1.76093    -2.70261
H     -1.60225     2.59901    -2.96572
O     -2.22898     1.13909    -1.93837
H     -1.92388     1.28275    -1.03034
O     -2.38970    -2.02876     2.01701
H     -1.92450    -2.54609     1.32778
O     -2.87056    -0.94487     1.21299
H     -2.14097    -0.29746     1.27300
O      1.01663    -0.79973    -2.10009
H      0.05183    -0.86159    -2.19071
O      1.36503     0.04786    -3.19488
H      2.23258     0.38141    -2.89957
O      1.19203    -1.80815     0.93903
H      0.97082    -1.65826     1.87623
O      1.39293    -0.46811     0.48650
H      1.42501    -0.61046    -0.48682
O     -0.62571     1.52791     2.31632
H     -0.66778     0.79489     2.95659
O     -0.86964     0.82740     1.09924
H      0.01023     0.42625     0.88093
