 36
-1364.9730112653335
O      0.48920     0.88806     1.90149
H     -0.14984     0.18437     2.13617
O      1.38426     0.14929     1.05494
H      1.48592     0.76042     0.30102
O     -0.04781    -1.49410    -1.32551
H      0.66583    -0.84630    -1.49651
O     -1.16799    -0.61810    -1.14468
H     -1.47588    -0.82086    -0.23032
O     -2.14668    -1.22919     1.29093
H     -2.71369    -0.47584     1.56855
O     -1.13311    -1.19780     2.30664
H     -0.59947    -1.96677     2.03020
O      3.62523    -1.20397    -0.21309
H      2.96131    -1.26580     0.49900
O      4.68658    -2.01321     0.27354
H      5.34027    -1.34726     0.51036
O     -3.26646     1.16518     1.67777
H     -2.69895     1.67810     1.05579
O     -4.44352     0.98272     0.88625
H     -5.10416     1.38292     1.45901
O     -0.53042     2.84430     0.40071
H     -0.22151     2.13462     1.00597
O     -1.69183     2.23390    -0.17656
H     -1.41371     2.17189    -1.10878
O      1.97933     0.24031    -1.82211
H      2.79319    -0.11729    -1.42602
O      1.89839     1.51607    -1.18444
H      1.23269     1.95555    -1.73442
O     -0.68552     0.90871    -3.26821
H     -0.98636     0.36048    -2.51381
O     -0.66663     2.19613    -2.64166
H     -0.99683     2.76684    -3.34277
O      1.69195    -2.79133     1.23318
H      2.10477    -3.59668     0.90674
O      0.32415    -2.97792     0.88175
H      0.24336    -2.49587     0.02882
