 36
-1364.9742269689266
O     -1.33770     1.80039     1.64094
H     -2.12747     1.35977     1.24691
O     -0.48699     1.90402     0.50626
H     -0.06817     1.01497     0.48898
O     -0.07061    -0.88797     1.63127
H      0.52329    -0.40292     2.22811
O      0.62638    -2.10662     1.37476
H      1.00909    -1.91262     0.50387
O      1.96648    -0.13306    -1.84803
H      2.63977     0.32882    -1.31604
O      0.98450    -0.32067    -0.83329
H      0.19777    -0.60436    -1.34935
O     -2.22645    -0.18399    -2.12415
H     -1.69553     0.60034    -2.36760
O     -1.21147    -1.18426    -2.00341
H     -1.65485    -1.84006    -1.43686
O     -0.63706     2.00861    -2.12551
H     -0.69772     2.12317    -1.15377
O      0.76355     2.23326    -2.32537
H      1.10778     1.32440    -2.40011
O      2.43285     2.52924     0.15301
H      1.96883     2.61964    -0.69349
O      3.33578     1.44322    -0.13185
H      3.33501     1.00218     0.73364
O     -3.02198    -0.99429     0.99517
H     -2.13763    -0.92384     1.38531
O     -3.15381     0.28531     0.38183
H     -2.91580     0.10122    -0.54892
O      1.65271     1.25325     2.71511
H      1.63578     1.96315     2.05062
O      2.88623     0.60170     2.40628
H      3.43533     0.84170     3.15971
O     -1.26009    -4.73513    -0.41505
H     -2.08279    -5.17949    -0.18886
O     -1.57734    -3.37950    -0.09137
H     -1.00422    -3.21080     0.67371
