 24
-909.9812256566149
O     -2.07608     2.40022    -1.51472
H     -1.33231     2.11792    -2.06619
O     -2.09937     1.32129    -0.58577
H     -2.99393     0.97191    -0.67086
O     -0.41537    -1.34903    -1.19308
H     -0.32262    -0.42309    -1.49474
O      0.93833    -1.78392    -1.40036
H      1.22702    -1.93510    -0.48339
O      0.80873     1.41321     0.84610
H      1.23843     0.60126     1.17943
O     -0.45332     1.42251     1.51526
H     -1.06228     1.47702     0.75337
O     -0.86021    -1.13185     2.15058
H     -0.77066    -0.15960     2.20661
O     -1.83117    -1.23579     1.10479
H     -1.27445    -1.33211     0.30885
O      2.15435    -0.77005     1.62681
H      2.72980    -1.05642     2.34323
O      1.49374    -1.97735     1.25989
H      0.60493    -1.81990     1.66061
O      1.93578     0.63489    -2.05567
H      1.84323    -0.32668    -1.94616
O      0.59308     1.03294    -1.76340
H      0.71024     1.36223    -0.84817
