 36
-1364.9724337500838
O      2.16531     2.30149     1.38260
H      2.71141     3.06081     1.15968
O      0.92701     2.61494     0.74148
H      0.94685     2.01160    -0.04114
O     -1.15287    -2.15774     2.51031
H     -0.57552    -1.39766     2.32976
O     -2.42074    -1.70634     2.04506
H     -2.81516    -1.32661     2.83745
O      2.33523    -1.51614    -1.69195
H      2.21280    -0.55719    -1.68773
O      3.52117    -1.69400    -0.90650
H      3.22723    -1.33345    -0.05028
O      0.49784    -3.59855     0.37846
H     -0.09931    -3.31251     1.08225
O      0.16456    -2.65956    -0.64479
H      1.02255    -2.51427    -1.10032
O      0.66841     1.87747    -2.44124
H     -0.04734     2.43804    -2.09715
O      0.84608     0.99256    -1.33842
H      0.05299     0.41265    -1.40885
O     -2.10338     0.91166     0.88575
H     -2.24006    -0.04962     0.88534
O     -1.44600     1.18205     2.12340
H     -0.61903     1.57858     1.80897
O     -2.41382     2.32059    -1.33063
H     -2.32758     1.96051    -0.42526
O     -1.36395     3.28190    -1.32262
H     -1.80337     4.03509    -1.72779
O      1.07070    -0.61568     1.32274
H      0.86842    -1.10962     0.50960
O      2.48027    -0.37157     1.19843
H      2.48466     0.60093     1.17534
O     -2.24891    -1.14464    -0.99300
H     -1.64938    -1.88807    -0.83442
O     -1.40771    -0.30834    -1.78799
H     -2.01912     0.41043    -2.00851
