 36
-1364.9756612941057
O      1.68979     0.35071    -1.02227
H      2.47646     0.68051    -0.56109
O      1.01360     1.55756    -1.39696
H      0.32435     1.63582    -0.71691
O      0.32624    -0.61701     2.99518
H     -0.58922    -0.80435     2.71561
O      0.84142     0.02620     1.83538
H      0.58522    -0.61014     1.11695
O     -1.43027    -1.28250    -1.99663
H     -1.17363    -0.60910    -2.66405
O     -2.58372    -0.65496    -1.41908
H     -2.76831    -1.25750    -0.67451
O     -1.71062     1.60028    -0.26687
H     -2.06973     0.85511    -0.78744
O     -2.33362     1.36140     0.99994
H     -1.74805     1.88704     1.57758
O     -0.53706     0.80042    -3.46098
H      0.14260     1.16653    -2.85489
O      0.23563     0.43560    -4.60060
H     -0.17820     0.98175    -5.27403
O      0.14908    -1.81077     0.08590
H     -0.26064    -1.60062    -0.78804
O      1.15915    -2.75558    -0.21778
H      1.94442    -2.20081    -0.11254
O     -0.19318     2.39448     2.30435
H      0.30586     1.54827     2.24257
O      0.56282     3.24180     1.43873
H      0.86705     3.91729     2.05251
O      3.67022    -0.04115     1.11939
H      2.87603    -0.08988     1.67306
O      3.74258    -1.37260     0.61873
H      4.47528    -1.75023     1.11690
O     -2.18960    -1.12033     1.91453
H     -2.32910    -0.25443     1.47372
O     -2.57768    -2.04638     0.89787
H     -1.74095    -2.51195     0.76256
