 36
-1364.9785220433644
O     -2.37414     1.47243     1.12275
H     -2.41015     1.43630     0.14156
O     -2.23861     0.09264     1.46492
H     -1.34989     0.06991     1.87701
O     -1.34298    -3.30508    -0.03236
H     -0.60305    -3.60633     0.50725
O     -0.96420    -1.93428    -0.16232
H     -1.67145    -1.44984     0.30398
O      0.20974    -0.41226     2.33806
H      0.49455    -1.31786     2.10407
O      1.26260     0.37157     1.77525
H      0.84181     1.25200     1.74399
O     -0.90875    -0.70938    -2.50674
H     -0.85865    -1.32987    -1.74958
O      0.46413    -0.34298    -2.67958
H      0.49966     0.53714    -2.24846
O     -1.70672     2.47070    -2.11082
H     -2.39503     2.81833    -2.68521
O     -2.37137     1.33164    -1.57358
H     -1.87916     0.59081    -2.00276
O      0.07441     3.51406     0.73093
H      0.30827     4.35310     1.13661
O     -0.16550     2.69701     1.87338
H     -1.08406     2.38636     1.68705
O      2.16513     1.86106    -1.58777
H      2.60778     1.05096    -1.27314
O      0.88428     1.61420    -1.01955
H      0.68095     2.43399    -0.53292
O      2.04114    -1.56674    -0.86717
H      1.51763    -1.15684    -1.59145
O      2.73187    -0.44146    -0.32682
H      2.17590    -0.22153     0.44589
O      1.92678    -3.40596     1.18309
H      1.89817    -2.75604     0.45472
O      0.76980    -3.01703     1.93339
H      0.80571    -3.63232     2.67233
