 36
-1364.9734434003522
O      1.33053    -0.14257    -0.29332
H      0.66253     0.27368     0.29553
O      1.92566     1.01788    -0.88103
H      1.14056     1.41587    -1.34679
O      0.72914    -0.89234     2.63140
H      1.05327    -1.61692     3.17706
O     -0.68340    -0.94569     2.81693
H     -0.96119    -1.53244     2.08607
O     -2.55114    -0.31463    -0.85083
H     -1.94926    -0.46152    -1.61754
O     -2.47828     1.10964    -0.72901
H     -2.33120     1.23246     0.22615
O     -0.26074     2.11716    -1.85442
H     -1.13815     1.77769    -1.56607
O     -0.31167     3.46503    -1.39514
H      0.15904     3.40984    -0.55249
O     -0.55014    -0.84589    -2.42691
H      0.32088    -0.90360    -2.00711
O     -0.89470    -2.20377    -2.71578
H     -0.96190    -2.59360    -1.82245
O     -1.61212    -2.30636     0.70352
H     -2.01791    -1.64593     0.10458
O     -0.90901    -3.16605    -0.18827
H      0.02278    -3.05397     0.09931
O      2.34113     2.59906     1.31381
H      2.33227     2.06438     0.49172
O      1.57339     3.74005     0.94144
H      2.24947     4.38833     0.71730
O      2.33533    -3.14803    -0.72413
H      3.00421    -3.71568    -0.33073
O      1.67433    -2.65030     0.43903
H      1.73985    -1.68354     0.29066
O     -0.17538     1.28494     1.27577
H      0.40181     1.78158     1.88605
O     -1.49052     1.41287     1.81822
H     -1.50002     0.60137     2.36033
