 32
-1213.3106409484128
O      2.47614    -2.34341     0.51102
H      1.57794    -2.61570     0.22592
O      2.18483    -1.93554     1.84986
H      3.03920    -2.06931     2.26839
O     -1.61998     0.65806    -1.11121
H     -2.23409    -0.09853    -1.30465
O     -1.91633     1.58865    -2.13691
H     -1.28301     1.32155    -2.80927
O     -3.11162    -1.45956    -1.57837
H     -3.58430    -2.15228    -1.10494
O     -2.41511    -2.17797    -2.60058
H     -1.50906    -2.13653    -2.23709
O      0.26380     2.62222    -0.73220
H     -0.68943     2.68714    -0.90360
O      0.55444     3.75276     0.08810
H      0.68820     3.31724     0.94469
O      1.53885     0.32620    -1.00113
H      1.09497     1.18709    -0.84532
O      2.52709     0.30926     0.03565
H      2.67525    -0.65290     0.12579
O     -0.92269    -0.56458     1.61308
H     -0.04735    -0.34733     1.99179
O     -1.47160     0.75403     1.51951
H     -1.49701     0.86782     0.55356
O      1.17516     0.87579     2.29376
H      1.73136     0.90166     1.49041
O      0.60305     2.18126     2.36929
H     -0.33106     1.92449     2.26613
O     -0.02345    -1.74893    -1.40851
H      0.58383    -0.99917    -1.21716
O     -0.08309    -2.43665    -0.15943
H     -0.49817    -1.78504     0.44308
