 40
-1516.6333564018294
O      2.12905     2.02952    -2.45482
H      1.46821     1.74613    -3.10767
O      2.99504     0.89392    -2.35298
H      2.37550     0.18251    -2.10358
O     -1.49785    -1.55910     1.44624
H     -2.25749    -1.20487     1.95067
O     -0.60702    -1.93888     2.49939
H     -0.22881    -1.07333     2.75912
O      0.74749     0.41831     2.82852
H      1.35395     0.36236     2.05574
O     -0.11051     1.49921     2.47075
H      0.32535     2.26339     2.85908
O      2.49556    -0.22458     0.92983
H      2.78447    -1.15143     1.01769
O      3.69305     0.49931     0.68030
H      3.55845     0.76079    -0.24142
O     -4.38992    -1.06312     1.70864
H     -4.25594    -0.55443     0.89675
O     -3.57079    -0.30390     2.59827
H     -3.98312    -0.48176     3.44825
O      1.20582     2.41495     0.09859
H      1.58281     2.40748    -0.79738
O     -0.05633     1.78669    -0.16011
H     -0.38961     1.66420     0.74737
O     -0.11556     0.81176    -3.90834
H     -0.15641     0.16118    -3.17143
O     -1.37697     1.46903    -3.76462
H     -1.83931     1.17982    -4.55691
O     -0.09924    -0.42755    -1.58293
H     -0.05688     0.37925    -1.00317
O      1.22334    -0.96748    -1.50141
H      1.14461    -1.54530    -0.71451
O     -3.12827    -0.33328    -0.81624
H     -2.36034    -0.72048    -0.37082
O     -2.78531     1.04759    -0.89055
H     -2.36921     1.11497    -1.76212
O      2.35006    -2.95413     1.41731
H      2.67125    -3.73188     0.95424
O      1.17199    -2.67238     0.66690
H      0.49066    -2.56515     1.37044
