 40
-1516.644494930913
O      1.82075     1.05348    -0.23306
H      1.19282     1.40261    -0.88323
O      2.02937    -0.28173    -0.70794
H      1.79602    -0.81254     0.07314
O     -0.18729    -2.35199     3.00312
H     -0.00702    -3.04123     2.33748
O     -1.43758    -1.83342     2.52451
H     -1.48877    -1.00830     3.03846
O     -1.13565     1.59383     0.61511
H     -1.12225     0.64916     0.34772
O     -2.34254     1.66709     1.37158
H     -1.98349     1.95390     2.22225
O     -1.41853     1.94969     3.94657
H     -2.05305     1.84980     4.66131
O     -1.01342     0.59894     3.76273
H     -0.16185     0.73665     3.28733
O     -1.27659    -0.99616    -0.03408
H     -1.40539    -1.42797     0.83739
O     -0.84753    -2.09149    -0.84817
H     -0.78185    -1.63723    -1.72158
O     -0.50497    -0.46922    -2.89419
H     -0.62318     0.46849    -2.64516
O      0.91146    -0.56873    -3.09514
H      1.26319    -0.56120    -2.17688
O     -1.60398     2.66767    -1.73340
H     -1.57591     2.50326    -0.76790
O     -0.35884     2.05973    -2.08891
H     -0.10246     2.53213    -2.90474
O      1.20136     0.70816     2.34162
H      1.37612     1.11228     1.46868
O      1.74368    -0.59696     2.11296
H      1.10175    -1.17011     2.56290
O      0.54168    -3.69962     0.75076
H     -0.01590    -3.24036     0.08753
O      1.80401    -3.11007     0.44218
H      2.30240    -3.87080     0.12940
O      0.47495     2.41570    -4.54742
H      0.80917     2.97685    -5.25170
O      1.68037     1.87340    -4.00972
H      1.41126     0.94425    -3.88021
