 36
-1364.9742249844644
O      1.27960     2.37001    -0.40125
H      0.36669     2.69669    -0.50937
O      1.11850     1.44387     0.67532
H      1.76250     0.74740     0.46291
O     -3.03202    -1.30534     1.21984
H     -2.85272    -0.36288     1.33916
O     -1.91042    -1.67681     0.41446
H     -1.96008    -1.03917    -0.33790
O     -2.38272     2.90120    -0.23981
H     -2.11629     2.36937     0.53989
O     -1.13949     3.51145    -0.58152
H     -1.26068     4.41354    -0.26874
O      2.29823     1.01291    -2.49400
H      1.94271     1.55963    -1.76196
O      3.34624     0.31587    -1.82172
H      4.13791     0.67120    -2.23442
O     -0.49813     0.42425    -1.58310
H     -0.20214    -0.48737    -1.77715
O     -1.90146     0.23591    -1.38926
H     -2.19747     1.15582    -1.32732
O      2.74727    -1.88624    -0.44385
H      2.95632    -1.17984    -1.08298
O      2.52247    -1.09808     0.72308
H      1.76626    -1.54854     1.13795
O     -1.36414     1.06894     2.86700
H     -1.05556     0.15810     3.01047
O     -1.38621     1.11228     1.44367
H     -0.42814     1.10412     1.20435
O      0.38700    -3.00808    -0.95053
H      1.32742    -2.77405    -0.82154
O      0.07636    -2.14550    -2.04366
H     -0.32298    -2.74958    -2.67475
O      0.23903    -1.91510     1.93236
H     -0.48751    -1.84480     1.26360
O     -0.41663    -1.50927     3.13720
H     -1.09773    -2.18340     3.22769
