 32
-1213.3074456702766
O      1.06839    -1.79693     1.27436
H      1.44206    -2.47574     1.84829
O     -0.02049    -2.47371     0.65537
H     -0.77105    -1.94667     0.98251
O     -0.01341    -0.66351    -1.54830
H      0.17529    -1.57126    -1.26096
O      0.53133    -0.61377    -2.86279
H      1.24658     0.02517    -2.73304
O     -2.99627    -2.25295     0.52510
H     -3.48841    -2.83887    -0.06166
O     -3.79511    -1.06926     0.52152
H     -3.30843    -0.49623    -0.10884
O     -1.37774    -0.10653     1.90817
H     -0.50952     0.22259     2.18953
O     -2.03647    -0.46367     3.12429
H     -2.85279    -0.80918     2.73789
O      1.82664     1.99584    -2.22586
H      1.41200     2.01049    -1.33342
O      3.21754     2.09879    -1.91568
H      3.35907     3.05064    -1.89862
O      2.81199    -0.85118    -0.54875
H      2.13039    -1.15916     0.07060
O      3.24480     0.33970     0.11795
H      3.39950     0.92596    -0.64677
O      0.67613     2.16743     0.17429
H     -0.29550     2.03802     0.09649
O      1.01512     1.29150     1.25694
H      1.88894     0.95916     0.95167
O     -2.26343     0.61375    -0.95421
H     -1.38115     0.24366    -1.18205
O     -1.94443     1.61269     0.02303
H     -1.97020     1.06843     0.83282
