 40
-1516.6471112973263
O     -0.55248     1.55165    -0.10791
H      0.25484     2.12818    -0.06576
O     -1.17289     1.80116     1.16002
H     -1.73017     1.00092     1.28396
O      1.83677    -1.55951     0.02154
H      1.70448    -1.82936    -0.90901
O      0.48404    -1.26666     0.33218
H      0.43948    -0.30131     0.15514
O      2.25809     3.75236     0.95478
H      1.97431     3.27107     1.75072
O      1.75467     2.87094    -0.04399
H      2.47293     2.21362    -0.12783
O      3.29804     0.66029    -0.38248
H      2.81703    -0.10805    -0.00666
O      3.10906     0.43531    -1.77798
H      3.97980     0.14157    -2.06323
O     -2.04483     0.13503    -2.67405
H     -1.09379     0.12648    -2.45820
O     -2.63622     0.73714    -1.51625
H     -1.90166     1.23809    -1.10417
O     -1.58351    -2.55582    -1.52556
H     -2.09605    -2.20633    -0.77156
O     -2.54042    -2.53013    -2.58435
H     -2.50713    -1.58628    -2.82384
O     -2.72186    -0.34861     1.58919
H     -2.25490    -1.00876     2.13190
O     -2.97326    -1.10545     0.40110
H     -3.09473    -0.39074    -0.25530
O      0.75731    -1.62720    -2.35042
H     -0.13389    -1.98827    -2.09850
O      0.57243    -0.23310    -2.11083
H      1.50207     0.06801    -2.09247
O      0.04638    -1.11593     3.45421
H      0.42218    -1.76376     4.05741
O     -0.72085    -1.94362     2.57959
H     -0.21311    -1.84715     1.74062
O      1.03739     1.98018     2.58234
H      0.14277     2.11384     2.21277
O      1.34623     0.73040     1.95494
H      0.92224     0.08461     2.55161
