 24
-909.9752140591238
O     -1.94857    -1.10414     2.43101
H     -2.37448    -0.74730     3.21521
O     -2.26919    -0.13082     1.44122
H     -1.44664     0.40382     1.37565
O     -0.06517     0.41054    -2.40475
H     -0.81408    -0.09472    -2.03192
O      0.97080     0.03486    -1.48734
H      1.68886     0.67494    -1.69280
O     -0.05329     1.16327     0.63129
H      0.22607     0.78874    -0.23095
O      1.13675     0.96620     1.41549
H      1.06579     0.00547     1.60287
O     -2.98748    -0.20833    -1.75630
H     -3.19153    -0.76043    -2.51465
O     -1.97965    -1.00205    -1.14078
H     -2.19239    -0.86719    -0.19998
O      0.58507    -1.61004     1.73706
H     -0.34211    -1.59597     2.03811
O      0.44462    -2.24933     0.47275
H      0.75378    -1.55713    -0.12809
O      3.31543     1.27849    -0.22263
H      2.53956     1.33325     0.36836
O      2.82251     1.89861    -1.41078
H      3.28010     2.74582    -1.41212
