 32
-1213.3086998871363
O      2.01119    -1.65302     1.19125
H      1.64999    -2.26752     0.52143
O      2.61227    -0.70343     0.29460
H      2.55578     0.10015     0.83241
O      0.72366    -2.52493    -0.97111
H     -0.20485    -2.30180    -0.75909
O      1.05924    -1.52681    -1.94395
H      1.71220    -0.99370    -1.46061
O     -1.68300    -1.81785     0.04830
H     -1.33411    -1.31157     0.81426
O     -2.64819    -0.92265    -0.51152
H     -2.21917    -0.69217    -1.36478
O      0.42164     1.12542    -0.54605
H     -0.41108     1.59177    -0.71112
O      1.42725     2.05377    -0.97448
H      1.89084     2.19269    -0.13828
O      2.25757     1.46843     1.90087
H      1.31898     1.34216     2.16325
O      2.68370     2.54803     2.72191
H      3.34643     2.10496     3.25905
O     -1.60577    -1.13068    -3.80559
H     -1.64912    -0.48896    -4.51953
O     -1.20783    -0.29618    -2.72340
H     -0.31253    -0.65863    -2.53285
O     -0.31161     0.68722     2.28802
H     -1.15336     0.96891     1.88173
O     -0.37867    -0.72909     2.09449
H      0.54787    -0.97012     1.86817
O     -2.64055     1.25752     0.99102
H     -2.81756     0.46648     0.42945
O     -2.45552     2.26184    -0.00269
H     -3.16506     2.87164     0.22251
