 16
-606.6398336944484
O     -1.40884     0.13461     1.15549
H     -0.53149     0.47428     1.42881
O     -1.88841     1.18082     0.31105
H     -1.35223     1.03512    -0.48259
O      1.11164     0.51036    -1.59362
H      1.43809     0.97515    -2.37047
O     -0.28896     0.48022    -1.85055
H     -0.45914    -0.46868    -1.73980
O      1.09497     0.76754     1.86528
H      1.71190     0.08131     2.13692
O      1.82589     1.46479     0.85344
H      1.46712     1.07079     0.04048
O     -1.02486    -1.89807    -0.49468
H     -1.30348    -1.25041     0.19444
O      0.29244    -2.22898    -0.02931
H      0.15331    -3.12830     0.28592
