 24
-909.9781832188172
O     -2.56007    -1.35477    -0.47563
H     -3.25733    -1.99447    -0.29771
O     -3.09229    -0.14944     0.06963
H     -2.42059     0.03767     0.75369
O      0.65493    -2.08080    -1.22121
H      1.12106    -1.24712    -1.38463
O      0.02455    -1.78481     0.02553
H     -0.88451    -1.53553    -0.24755
O      1.82643     1.59824    -0.75096
H      1.36421     1.51897     0.09784
O      2.25509     0.26986    -1.00875
H      2.66267     0.00530    -0.16092
O     -0.53083     0.80703    -1.96381
H      0.32571     1.19993    -1.71348
O     -1.46604     1.70784    -1.34770
H     -2.24573     1.13564    -1.29185
O      2.91423    -0.63379     1.42510
H      3.30313    -0.16133     2.16544
O      1.53639    -0.61686     1.79652
H      1.16655    -1.22864     1.12088
O     -1.07058     0.56145     1.69973
H     -0.28749     0.09760     2.03462
O     -0.45333     1.70898     1.10823
H     -0.90296     1.75710     0.23511
