 32
-1213.3065762920864
O      3.55483    -2.46363     0.91297
H      4.40617    -2.64973     1.31886
O      3.28945    -1.14807     1.40424
H      2.96925    -0.71064     0.58614
O     -1.14308    -1.28926    -0.74274
H     -0.49329    -1.93754    -0.41374
O     -0.31823    -0.38689    -1.48656
H     -0.74129     0.48264    -1.30059
O     -1.34957     1.96257    -0.83494
H     -0.81191     2.78485    -0.86603
O     -2.53004     2.32308    -1.56410
H     -3.17581     1.83850    -1.03419
O      2.14051     0.07506    -0.64052
H      1.28600    -0.24025    -1.01360
O      1.70405     1.19203     0.13678
H      1.14534     0.74571     0.80640
O      1.25885     3.20861    -1.64020
H      1.53676     2.56737    -0.96427
O      0.35970     3.99836    -0.85602
H      0.37643     4.83646    -1.32600
O      0.96267    -2.84178     1.43138
H      1.92865    -2.85379     1.26177
O      0.44212    -3.29483     0.18274
H      0.04899    -4.13351     0.43433
O      0.23106    -0.25269     1.83458
H      0.42522    -1.20803     1.78883
O     -1.16729    -0.26362     2.11128
H     -1.50503     0.35422     1.44825
O     -4.58083    -0.65180    -0.49517
H     -5.00389    -0.85622     0.34412
O     -3.40499     0.02229    -0.04839
H     -2.69919    -0.56471    -0.38636
