 28
-1061.6446385879256
O     -0.33859    -2.35456    -2.24916
H     -0.89682    -2.37956    -3.03138
O     -1.16255    -3.00561    -1.27848
H     -1.01850    -2.40693    -0.52259
O      0.18204     0.82924    -1.80119
H      0.07321     1.33751    -0.96836
O      1.03624    -0.24376    -1.39000
H      0.51685    -1.03564    -1.66102
O      0.83660     0.44169     3.50918
H      0.61820     1.20331     2.94458
O      1.13030    -0.53827     2.51460
H     -0.05910    -0.99891     1.41858
O     -0.39850     1.97452     0.55356
H     -0.87081     1.19572     0.92169
O      0.60599     2.27541     1.52364
H      1.40008     2.01895     1.02175
O     -2.27589    -0.21381    -1.78567
H     -1.42819     0.22395    -2.01871
O     -3.19650     0.86197    -1.93648
H     -3.80595     0.47426    -2.56915
O     -1.75985    -0.32922     0.86286
H     -2.13890    -0.37533    -0.03487
O     -0.70481    -1.30101     0.73951
H      1.97549    -0.22984     2.14634
O      2.63691     1.19110     0.12331
H      2.19258     0.60604    -0.53124
O      3.23908     0.21854     0.97633
H      4.16030     0.49262     0.96170
