 16
-606.6352473818084
O     -2.69899     1.11844     0.49979
H     -1.73599     1.02614     0.43945
O     -3.13405     0.23841    -0.53929
H     -3.61995    -0.42248    -0.03833
O      3.56675     0.67893     0.86864
H      3.43483     0.84368    -0.07132
O      2.74618    -0.48971     1.02566
H      3.16842    -0.92482     1.77213
O      0.70844     0.99068    -0.86307
H      0.25934     0.25419    -1.32404
O      0.37494     0.62713     0.49081
H      1.23962     0.28820     0.78991
O     -0.94664    -1.04025    -1.39502
H     -1.79017    -0.56370    -1.27245
O     -0.84204    -1.67316    -0.11224
H     -0.45249    -0.93271     0.38060
