 32
-1213.3030994408134
O      1.23735    -1.94047     1.14976
H      0.71677    -2.44222     0.49700
O      2.55107    -1.95880     0.59084
H      2.40652    -1.53225    -0.27397
O     -0.05812    -2.93531    -2.31609
H     -0.07030    -3.89507    -2.36480
O     -0.34741    -2.74372    -0.93103
H     -0.84717    -1.89611    -0.96078
O      1.28238     0.03233    -2.34293
H      0.39301    -0.05335    -1.96567
O      1.91294    -1.17774    -1.93423
H      1.31092    -1.86716    -2.27247
O     -0.52236     3.43032    -1.51890
H      0.11074     3.11219    -0.86343
O     -1.64476     2.59227    -1.20747
H     -1.87928     2.22891    -2.07003
O      0.61743     1.50904     0.39768
H      0.88536     1.23042     1.29658
O      1.88983     1.79656    -0.19664
H      1.83289     1.28035    -1.01669
O     -1.34097    -0.32057    -0.85879
H     -0.97060     0.23899    -0.14324
O     -2.74902    -0.28563    -0.65285
H     -2.78271    -0.15003     0.31359
O      1.28690     0.23597     2.67337
H      1.40134    -0.64658     2.24610
O      0.09653     0.02008     3.43506
H      0.35823     0.34446     4.30174
O     -1.91624     0.46829     1.72240
H     -1.20555     0.39550     2.39005
O     -2.22935     1.85489     1.74233
H     -2.05947     2.09559     0.81744
