 32
-1213.3066231106945
O      1.51255     2.16335     2.63390
H      1.83622     2.61915     1.84162
O      1.86310     0.81738     2.30857
H      2.47415     0.57330     3.01352
O     -0.29067    -2.93723    -1.51938
H     -0.99329    -2.53609    -2.04537
O      0.34716    -1.74466    -1.05950
H      0.35779    -1.85790    -0.08980
O     -3.15390    -1.19184    -1.58454
H     -3.95613    -0.76240    -1.89925
O     -2.12117    -0.53224    -2.31922
H     -1.83361     0.17303    -1.69962
O      1.72990     3.06677    -0.08257
H      1.08331     2.41919    -0.44532
O      2.97148     2.52868    -0.54120
H      3.10748     2.98069    -1.38097
O      2.46417    -0.10453    -0.44344
H      2.78062     0.81642    -0.43246
O      2.81851    -0.52634    -1.76117
H      2.26955    -1.31755    -1.81164
O      0.01309     1.26815    -1.07046
H      0.37603     0.35881    -1.02494
O     -1.24593     1.15340    -0.41122
H     -1.02330     0.64652     0.39874
O     -0.26463    -1.63486     1.58273
H     -1.19836    -1.91891     1.48132
O     -0.48750    -0.22006     1.70688
H      0.41484     0.11402     1.92216
O     -3.34824    -0.37654     1.52515
H     -2.56744    -0.05975     1.99436
O     -2.84118    -1.61498     1.02689
H     -2.90216    -1.47754     0.06122
