 20
-758.2975194311006
O     -1.76386    -2.31243    -0.55341
H     -0.84316    -2.02073    -0.53161
O     -2.19717    -1.84699     0.72683
H     -2.76798    -2.56605     1.01252
O      0.90148     2.05846    -0.64957
H      1.77490     1.86914    -0.26396
O      0.09180     1.23509     0.19613
H     -0.79152     1.35848    -0.18491
O      3.09756     0.62703     1.42765
H      2.61476    -0.08660     0.98079
O      3.38955     1.46186     0.29874
H      3.93631     2.13770     0.70945
O      1.89530    -1.51801     0.17861
H      2.53677    -1.90504    -0.42347
O      0.90105    -1.07846    -0.75722
H      0.66234    -0.19285    -0.38675
O     -2.56092     0.53416    -0.57926
H     -2.60059    -0.31684    -0.10589
O     -3.76786     1.17442    -0.15603
H     -4.21805     1.27395    -0.99968
