 24
-909.9808829326431
O      0.21800     1.44919    -1.95993
H     -0.41028     1.76490    -2.61874
O      0.28469     0.05856    -2.24470
H     -0.41423    -0.30221    -1.66854
O     -0.57362    -2.01251    -0.43839
H      0.37126    -2.03519    -0.18535
O     -1.20468    -1.62620     0.78676
H     -2.08077    -1.36683     0.45270
O      2.03161    -1.62949     0.10372
H      2.11618    -1.10824     0.92544
O      2.47306    -0.62725    -0.82913
H      1.73323    -0.58677    -1.46039
O     -3.32173    -0.15044     0.02455
H     -4.08266    -0.20983    -0.56021
O     -2.34872     0.42848    -0.84326
H     -1.86122     0.98833    -0.20481
O      2.08778     0.43445     1.80275
H      1.19477     0.48619     2.19232
O      1.92838     1.44510     0.78142
H      2.23798     0.93711     0.01063
O     -0.54184     0.67847     2.00767
H     -0.77972    -0.16800     1.58175
O     -0.73763     1.61456     0.93595
H      0.19118     1.80940     0.69696
