 36
-1364.9727871681018
O      3.09425     1.38987    -1.78390
H      3.85728     1.94952    -1.96067
O      2.70032     1.82467    -0.47843
H      2.85701     1.01856     0.04688
O     -0.55123    -2.71242     2.81185
H     -0.49806    -3.60482     3.16410
O      0.59599    -2.08347     3.37284
H      1.18784    -2.02749     2.58592
O     -2.03815    -1.07768     1.26633
H     -1.55494    -1.73038     1.79829
O     -2.31750    -1.85017     0.09265
H     -2.90673    -1.23330    -0.36562
O      0.30480    -1.16999    -0.94960
H     -0.58503    -1.56031    -0.85151
O      0.78391    -1.73448    -2.17459
H      0.76259    -0.93491    -2.72729
O     -2.58788     0.21532    -2.67463
H     -3.25343     0.58466    -3.26316
O     -3.24053     0.29738    -1.41301
H     -2.65309     0.91641    -0.93003
O     -0.44907     2.46962     0.09742
H     -0.09915     2.28272    -0.79053
O     -1.56113     1.58542     0.19409
H     -1.20607     0.84859     0.72279
O      1.92428    -1.58341     1.12434
H      1.33883    -1.40302     0.34862
O      2.47536    -0.29957     1.43590
H      1.69604     0.12660     1.84796
O      0.21795     1.84168     3.02598
H     -0.00438     2.38549     2.25738
O      0.16738     0.55467     2.39412
H     -0.09555    -0.04041     3.11310
O      0.83701     0.78039    -3.26476
H      1.58499     1.09184    -2.72874
O     -0.22244     1.58444    -2.74491
H     -0.94951     0.94206    -2.69182
