 24
-909.9690234557924
O     -2.12494    -0.72899     1.53639
H     -1.87926     0.18777     1.71474
O     -1.52646    -0.86478     0.24769
H     -0.99797    -1.67265     0.34518
O      0.29360     1.01507    -1.58021
H      0.81957     0.25832    -1.22822
O      0.98083     2.11413    -0.98481
H      0.90874     2.77568    -1.67978
O      1.47343    -1.20684    -0.80055
H      1.53397    -1.16139     0.17388
O      0.53884    -2.28045    -0.97455
H      0.07557    -1.98448    -1.78442
O     -0.87043    -1.17938    -2.98176
H     -0.52186    -0.27744    -3.01843
O     -2.16960    -0.96917    -2.42266
H     -1.97118    -0.89350    -1.47397
O      2.21449     0.14817     2.22453
H      2.40891    -0.23815     3.08321
O      1.07125    -0.62712     1.84424
H      0.43357     0.10746     1.71135
O     -0.29578     1.57845     1.31441
H      0.04716     1.87943     0.44485
O      0.12008     2.59047     2.23164
H      0.99878     2.26375     2.46709
