 32
-1213.3118828542572
O      0.68442    -2.32419    -1.86806
H      0.91158    -2.83826    -1.07698
O      0.24048    -1.11667    -1.25356
H     -0.70561    -1.06076    -1.48075
O      0.32213     1.42445     2.38296
H      0.52297     1.96471     1.58960
O     -0.99420     1.86239     2.70522
H     -0.90051     2.04223     3.64429
O     -1.82032     1.51602    -1.12415
H     -1.68813     0.84932    -0.41855
O     -1.64769     0.71869    -2.30164
H     -0.82498     1.09978    -2.65815
O      0.79155     1.70578    -3.00622
H      0.68749     2.59934    -2.64372
O      1.57714     1.12456    -1.94918
H      1.15927     0.24782    -1.86184
O      0.91755     2.72215     0.07138
H      1.36435     2.07622    -0.51435
O      0.07256     3.37825    -0.88238
H     -0.71124     2.79142    -0.88690
O      1.06614    -1.16764     1.98001
H      0.80343    -0.28329     2.29925
O      1.85277    -0.78952     0.84670
H      1.17091    -0.83671     0.15246
O     -0.44513    -3.80435     0.99181
H     -0.52707    -4.38682     1.75181
O      0.96818    -3.62671     0.87786
H      1.11548    -2.80373     1.39718
O     -2.17357    -1.36278     1.00574
H     -1.47997    -2.03455     0.98844
O     -1.37421    -0.19122     0.88008
H     -1.42489     0.23124     1.75526
