 32
-1213.309503190085
O      2.24651    -1.72686     0.52880
H      1.41726    -2.01073     0.12620
O      1.75979    -0.78151     1.49087
H      2.52225    -0.16993     1.52364
O      0.30856    -1.21740    -2.12696
H     -0.37900    -0.57811    -2.40248
O     -0.33107    -1.78141    -0.96915
H     -1.08619    -2.24733    -1.39195
O     -2.29009    -2.85946    -2.35754
H     -2.25755    -3.11850    -3.28392
O     -3.50705    -2.11804    -2.27716
H     -3.17136    -1.21432    -2.12833
O      1.49275     1.16632    -0.87161
H      1.21900     0.26112    -1.10997
O      0.27361     1.78513    -0.45953
H      0.32789     1.77016     0.51849
O      3.19447     2.15730     0.91263
H      2.63873     1.78021     0.19729
O      3.76578     0.97381     1.46527
H      4.57741     0.86248     0.95934
O     -2.67419     0.41220    -1.55608
H     -2.41233     0.31236    -0.62157
O     -1.44463     0.76982    -2.19741
H     -0.97131     1.31396    -1.53278
O      0.61470     2.05864     2.19607
H      1.54381     2.33751     2.26058
O      0.42425     1.20310     3.31770
H      0.70349     0.34739     2.95132
O     -2.04174    -0.21733     2.21040
H     -1.65190     0.54316     2.66655
O     -1.65171     0.05733     0.87139
H     -1.04215    -0.67272     0.66084
