 24
-909.9814813582444
O     -0.35490    -2.08876     0.61564
H      0.08523    -1.34741     1.07835
O      0.29029    -2.07986    -0.66369
H     -0.37664    -1.62106    -1.20356
O      1.36444     0.93600     1.09068
H      2.09183     0.30097     0.88820
O      0.50692     0.11236     1.89356
H     -0.31463     0.64138     1.88291
O      2.69463    -1.09803     0.10286
H      1.97046    -1.65508    -0.24623
O      3.08239    -0.31049    -1.02070
H      2.23544     0.00022    -1.37675
O     -2.01624     2.38932     0.84511
H     -2.54873     2.94385     1.42061
O     -1.93922     1.20784     1.62881
H     -2.39228     0.55644     1.05468
O     -1.90568    -0.61295    -1.27532
H     -1.47012     0.24579    -1.15076
O     -2.59188    -0.81995    -0.03418
H     -2.00778    -1.50568     0.34278
O     -0.04908     1.30774    -1.12686
H      0.48949     1.25193    -0.30419
O      0.84113     0.78448    -2.10417
H      0.98194     1.55951    -2.65736
