 24
-909.9733584767189
O     -0.27112    -2.86425    -1.83553
H      0.31982    -2.09652    -1.83559
O     -0.24443    -3.16064    -0.43576
H     -0.46355    -4.09830    -0.43308
O     -1.82889    -1.03386    -0.17574
H     -1.24415    -1.81449    -0.14804
O     -1.59487    -0.41444     1.10243
H     -1.59176     0.51976     0.80702
O      0.99162    -0.37265    -1.28907
H      1.04052     0.59051    -1.17237
O      2.16524    -0.81508    -0.58843
H      1.79263    -1.10996     0.25646
O     -1.57835     1.49823    -1.61388
H     -1.66092     0.53719    -1.52416
O     -1.55982     1.87082    -0.23107
H     -0.82566     2.50237    -0.18576
O      0.84407    -0.77349     2.06100
H     -0.07468    -0.76874     1.69418
O      1.05036     0.62096     2.30111
H      0.65649     0.75994     3.16805
O      0.65149     3.30410     0.46147
H      1.17070     3.94076    -0.03844
O      1.31630     2.09216     0.11468
H      1.21518     1.58977     0.94658
