 32
-1213.3087213487277
O     -0.41516    -2.93764     2.05028
H     -0.08802    -3.51702     2.74347
O      0.22577    -1.71133     2.39892
H     -0.53479    -1.08455     2.40545
O      1.24793    -1.76400    -2.83854
H      0.67539    -2.44857    -2.45796
O      2.53396    -2.11844    -2.32087
H      2.47149    -1.78275    -1.41427
O     -0.22979    -2.67813    -0.71984
H     -0.15644    -2.93207     0.21505
O     -0.99444    -1.47595    -0.59347
H     -0.39811    -0.83201    -1.01699
O      1.07247     1.27745    -2.87894
H      1.21981     0.37311    -3.19296
O      0.41345     0.97191    -1.65024
H     -0.33222     1.59564    -1.62954
O      2.10277     0.41977     0.75737
H      1.89582     0.77192    -0.12242
O      2.00239    -0.98767     0.50463
H      1.37638    -1.27014     1.20232
O     -2.31546     3.38199     0.05870
H     -2.49864     4.02344    -0.63339
O     -2.07582     2.21247    -0.72122
H     -2.24893     1.51912    -0.05231
O      0.26701     2.08804     1.92666
H      1.04167     1.52914     1.73555
O      0.26050     2.91822     0.76081
H     -0.66860     3.19414     0.72624
O     -1.61410     0.23059     2.22239
H     -1.06987     1.04236     2.11541
O     -2.35297     0.18006     1.00040
H     -1.93936    -0.56969     0.52717
