 40
-1516.6357639954695
O      1.13078     3.63774    -0.98039
H      0.55745     3.10273    -0.39882
O      0.27522     3.80850    -2.11042
H      0.44322     4.72622    -2.34286
O      2.20244    -1.55719     2.49077
H      1.30681    -1.27445     2.77104
O      2.03115    -2.97632     2.48617
H      2.88395    -3.27355     2.81646
O     -1.63540     2.11589     0.63325
H     -1.82841     1.60083    -0.17336
O     -0.21356     1.99865     0.71748
H     -0.13400     1.05321     0.99219
O     -2.20626     0.95647     3.76683
H     -2.49686     1.15841     4.65991
O     -1.71850     2.23793     3.33891
H     -1.75896     2.12346     2.37026
O     -0.62631    -0.44981     1.49813
H     -0.23331    -1.22684     1.03971
O     -0.32646    -0.70588     2.88142
H     -0.99916    -0.10481     3.26959
O     -0.37116    -3.61304     0.09160
H     -0.48694    -3.50048    -0.86703
O      0.57146    -2.54738     0.30138
H      1.21410    -2.94750     0.91648
O      0.50656    -1.84463    -2.57929
H      0.86452    -1.72927    -1.68049
O     -0.75280    -2.46703    -2.32164
H     -1.31823    -1.71789    -2.06327
O     -2.10567     0.80142    -1.70225
H     -1.34891     0.74012    -2.33105
O     -2.49042    -0.55532    -1.53114
H     -3.38048    -0.54268    -1.89468
O      0.06474     0.66992    -3.29746
H      0.36136    -0.26019    -3.16029
O      1.19599     1.38868    -2.78747
H      0.85300     2.30151    -2.70565
O      1.53221    -0.09102    -0.60364
H      1.64615     0.57225    -1.30978
O      2.86862    -0.53112    -0.36063
H      2.78210    -0.74513     0.57562
