 20
-758.3024484309631
O     -0.58885    -1.34823     1.06979
H      0.36155    -1.10703     0.99053
O     -0.79439    -1.95020    -0.21150
H     -1.53353    -2.53401    -0.02117
O      1.98090    -0.86796     0.59846
H      2.11182    -0.27511    -0.18241
O      2.72744    -0.19928     1.61157
H      3.48444    -0.78566     1.69009
O     -0.87095     0.54376    -1.30405
H     -0.87984    -0.34295    -0.90130
O     -0.41811     1.34094    -0.19739
H     -1.23761     1.41027     0.32724
O      2.30927     0.75730    -1.47740
H      2.16375     1.70953    -1.41069
O      1.51435     0.36794    -2.60481
H      0.60709     0.47459    -2.25607
O     -2.95975    -0.06977     1.46299
H     -2.05580    -0.41960     1.40086
O     -2.68214     1.33063     1.31383
H     -3.49064     1.62785     0.88714
