 32
-1213.3178882411166
O      0.95848    -0.89094     2.69791
H      1.27568    -0.77610     1.77072
O      0.69016     0.46796     3.06524
H     -0.28355     0.43232     3.11983
O     -1.51421    -1.52215    -1.23891
H     -0.82589    -1.59775    -1.93117
O     -1.03150    -2.49278    -0.30824
H     -1.42326    -2.18661     0.53355
O     -1.93632     0.75674     0.05291
H     -1.78667    -0.00913    -0.54867
O     -1.36205     1.84008    -0.67373
H     -1.01441     2.39215     0.04795
O      0.79381     0.99418    -1.93363
H     -0.10283     1.33046    -1.71081
O      1.60834     2.14559    -1.80090
H      1.64865     2.21770    -0.83592
O     -0.03232     3.03497     1.41487
H      0.26915     3.87739     1.77121
O      1.20704     2.34684     1.20832
H      1.12830     1.61822     1.86636
O      0.35499    -0.77031    -4.09549
H      0.77918     0.00338    -3.69635
O      0.45827    -1.68074    -2.99806
H      1.03972    -2.37548    -3.32828
O      1.62793    -1.92259    -0.14483
H      0.68733    -2.18242    -0.16072
O      1.52571    -0.53533     0.18089
H      1.30192    -0.11186    -0.68005
O     -1.52346    -1.64757     2.22601
H     -0.58706    -1.68270     2.50873
O     -1.79426    -0.27694     2.53022
H     -1.90010     0.10899     1.63951
