 36
-1364.9764421799814
O     -0.92229     3.53346     0.81757
H     -1.46544     4.30642     0.63334
O      0.24768     3.76488     0.03557
H      0.02044     3.31152    -0.80127
O     -0.50959     2.07815    -1.95846
H     -1.10402     1.50792    -1.43759
O      0.73869     1.42684    -1.72735
H      0.99619     1.08610    -2.59643
O      2.24225    -1.65749     2.11391
H      2.11344    -0.85672     1.57007
O      1.37677    -2.58680     1.45529
H      0.49783    -2.36693     1.83305
O      3.32619    -0.00925    -1.71139
H      4.17123    -0.43381    -1.89447
O      2.50485    -0.43057    -2.80237
H      2.02759    -1.16771    -2.37065
O     -4.16049    -0.62669     0.75362
H     -4.46316    -0.76126     1.65842
O     -4.07794    -1.95452     0.23221
H     -3.14622    -2.17110     0.43832
O     -1.49939     0.92998     1.01552
H     -1.29654     1.88496     0.96517
O     -2.14896     0.73308    -0.24487
H     -2.91636     0.20044     0.06644
O      1.94403     0.47088     0.50696
H      2.55486     0.34113    -0.24902
O      2.38005     1.73065     0.99243
H      1.64883     2.29259     0.70438
O      1.25572    -2.10276    -1.13551
H      1.37534    -2.33279    -0.17807
O      0.07884    -1.29751    -1.08449
H      0.43452    -0.43602    -0.79794
O     -1.03707    -1.59798     1.91950
H     -1.19779    -0.67953     1.62875
O     -1.44762    -2.36866     0.79165
H     -0.91167    -1.98979     0.05829
