 24
-909.9786691915605
O     -2.03292     0.56770    -0.66787
H     -1.51440     1.39620    -0.59587
O     -2.39970     0.35647     0.70126
H     -1.66798    -0.19835     1.01563
O      0.97806     0.73473    -1.27863
H      1.57317    -0.02719    -1.41350
O      1.73687     1.55739    -0.37735
H      1.87691     0.95121     0.37855
O      2.35009    -1.55863    -1.39297
H      2.30135    -2.23552    -2.07507
O      1.55719    -2.10693    -0.34456
H      0.64120    -1.97561    -0.68674
O     -1.64278    -2.54068    -0.53971
H     -2.26742    -2.92144    -1.16489
O     -0.85921    -1.71660    -1.40425
H     -1.25834    -0.82260    -1.24842
O      0.21144    -0.08724     1.97990
H      0.08344     0.87964     1.96492
O      1.61787    -0.17380     1.70642
H      1.65828    -1.02192     1.24272
O     -0.75136     2.43772     1.61868
H     -1.65468     2.09150     1.63291
O     -0.62387     2.65275     0.20547
H      0.31469     2.42382     0.03759
