 32
-1213.3050834252726
O      0.69209     1.10216    -1.80745
H      1.38997     0.91217    -1.13347
O      0.31765    -0.19251    -2.28771
H     -0.59211    -0.27767    -1.94993
O      1.63197    -2.14263    -1.01195
H      1.25957    -1.48307    -1.62936
O      3.03636    -1.91528    -1.18054
H      3.22364    -1.38200    -0.39433
O     -2.12697    -0.39752    -1.15307
H     -2.25146     0.45505    -0.70709
O     -3.25775    -1.14114    -0.70159
H     -2.82287    -1.97944    -0.49238
O      2.53795    -0.15918     0.92418
H      1.61802    -0.48220     0.99633
O      2.32390     1.08890     0.25977
H      1.86669     1.61140     0.94428
O      0.87949     2.65649     1.91146
H      0.90660     3.47749     2.41102
O     -0.47795     2.25315     2.04778
H     -0.81141     2.38042     1.13908
O     -1.05324    -3.53722     1.28555
H     -0.90812    -2.78967     1.88245
O     -0.90557    -2.90445     0.01107
H      0.04600    -3.00075    -0.19193
O     -0.68972    -0.47219     2.20692
H     -0.65111     0.47120     2.42988
O     -0.06727    -0.39978     0.91326
H     -0.67691    -0.93029     0.37391
O     -1.29024     2.30194    -0.56732
H     -0.49643     1.97658    -1.06579
O     -1.41722     3.62219    -1.07478
H     -2.11965     3.49694    -1.71815
