 32
-1213.3137960963136
O      2.20726    -1.03013    -2.09410
H      1.64203    -1.56270    -1.48690
O      1.40703    -0.93917    -3.26886
H      1.85148    -1.55018    -3.86231
O      1.50158     0.53602     2.07956
H      1.79943     0.58313     1.14906
O      0.46377    -0.44988     1.96538
H     -0.34119     0.11179     2.02231
O     -0.80848     0.66293    -1.50271
H     -1.47086     0.59538    -0.78283
O     -1.00274    -0.58808    -2.17369
H     -0.19760    -0.61446    -2.72297
O      2.94647     2.09245    -0.53166
H      2.47751     2.78884    -0.04658
O      1.91592     1.10348    -0.44895
H      2.12839     0.49566    -1.18082
O      0.99946     3.27705     0.99371
H      0.99322     2.57982     1.66939
O     -0.18661     3.00104     0.24930
H      0.12862     2.37719    -0.42838
O      0.77199    -2.05588    -0.10890
H      0.63042    -1.45191     0.66058
O     -0.54386    -2.52804    -0.40730
H     -0.83528    -1.86977    -1.07414
O     -2.17057    -1.94981     1.63465
H     -1.55370    -2.36423     0.99112
O     -3.40460    -2.57816     1.28979
H     -3.62329    -3.01089     2.12067
O     -1.58495     1.22557     1.67326
H     -1.25426     2.00164     1.17304
O     -2.35622     0.55459     0.66540
H     -2.43540    -0.34092     1.06273
