 16
-606.6428118577203
O     -1.88457     0.76855     0.07090
H     -1.62642    -0.15273    -0.06699
O     -0.86914     1.23007     0.97479
H     -0.18270     1.50109     0.33423
O      0.38774    -1.06471     1.76707
H     -0.11873    -0.22890     1.75704
O      1.68937    -0.59893     2.12707
H      1.84839    -1.11380     2.92387
O     -0.30419     1.16233    -2.21065
H     -1.08923     1.37093    -1.68614
O      0.72042     1.34829    -1.21529
H      1.02105     0.42321    -1.13324
O     -0.58784    -1.48041    -1.26188
H     -0.61156    -0.91375    -2.04225
O      0.79612    -1.30825    -0.90108
H      0.74692    -1.40839     0.06894
