 28
-1061.6416552430023
O     -0.89258     2.35656     0.34114
H     -0.53604     2.94515    -0.33513
O     -0.23063     2.78883     1.53041
H      0.13210     1.94388     1.83345
O      1.25854     0.25050     1.87228
H      1.74657     0.70957     1.15848
O      1.29069    -1.09302     1.38316
H      0.43673    -1.42591     1.69411
O     -0.97111    -2.85302     1.82151
H     -1.21872    -3.14634     2.70239
O     -2.24843    -2.66216     1.20015
H      1.29714    -1.17570    -0.30424
O     -1.04782     1.37860    -2.55496
H     -1.53179     0.78302    -1.95114
O      0.28092     1.24112    -2.06213
H      0.51738     0.31494    -2.24519
O     -1.63364    -0.17365     0.49092
H     -1.30458     0.74555     0.36991
O     -2.06953    -0.47328    -0.83905
H     -1.42146    -1.16657    -1.06532
O     -0.03834    -2.18260    -1.23482
H      0.07232    -2.70920    -0.43148
O      1.13453    -1.35850    -1.25409
H     -2.21344    -1.69779     1.04152
O      2.07488     1.73313    -0.20739
H      1.36071     1.66239    -0.87969
O      3.10981     1.02233    -0.87821
H      3.76504     1.71822    -0.97413
