 32
-1213.3078498023287
O      2.43939     0.59299     1.88365
H      1.67508     0.04862     2.12684
O      1.87598     1.47716     0.91343
H      1.45980     2.15280     1.48070
O      0.26528    -1.90236    -0.17376
H      0.94289    -1.36955    -0.64771
O     -0.76673    -2.04414    -1.15377
H     -1.48781    -1.50543    -0.76767
O     -0.48506     0.92883    -1.09837
H      0.27588     1.36491    -1.51064
O     -1.05894     1.95473    -0.28467
H     -1.98742     1.70568    -0.36649
O      0.25367     2.69163     2.64291
H      0.34735     2.55620     3.58994
O     -0.81711     1.80442     2.33431
H     -0.84670     1.89029     1.35264
O      2.33162     0.74854    -1.66018
H      2.33973     0.92411    -0.70180
O      2.14404    -0.66491    -1.66307
H      1.91905    -0.83212    -2.59844
O      1.06405    -1.54383    -3.93195
H      1.01386    -1.42593    -4.88479
O     -0.13267    -0.89020    -3.50057
H     -0.33353    -1.40163    -2.69162
O     -1.01586    -1.45759     2.12428
H     -0.46325    -1.71946     1.35359
O     -0.09364    -0.70244     2.90743
H     -0.44493     0.19740     2.76774
O     -2.86823     0.02560     0.90693
H     -2.25264    -0.51907     1.44953
O     -2.95446    -0.78071    -0.26755
H     -3.80473    -1.22119    -0.15943
