 36
-1364.9741464512103
O      0.97452     2.97279     0.49950
H      1.80566     2.50379     0.26563
O      0.33969     3.01620    -0.78566
H     -0.60935     3.01459    -0.54741
O     -0.01536    -2.68879     2.73722
H      0.70734    -2.53495     2.10000
O     -1.12046    -2.06394     2.08917
H     -1.25057    -2.61506     1.29671
O      0.19636     0.19368     2.16738
H     -0.45222    -0.51714     2.37753
O     -0.64217     1.27678     1.76755
H      0.01667     1.94154     1.46228
O     -0.29712     1.12138    -3.24356
H     -1.12738     0.64640    -3.08325
O      0.42130     0.69827    -2.07103
H      0.55434     1.56798    -1.63329
O     -1.38665    -0.74031    -0.92780
H     -0.50959    -0.32894    -1.15163
O     -2.24068    -0.19082    -1.93545
H     -2.62434     0.52433    -1.40293
O     -2.66872     1.52600     0.09966
H     -1.94192     1.28856     0.71850
O     -2.29974     2.84724    -0.26935
H     -2.89771     3.38752     0.25685
O      2.86668     1.25515    -0.32249
H      2.41479     0.38022    -0.35706
O      3.71711     1.08455     0.80884
H      4.58152     1.06841     0.38742
O      1.51337    -0.96458     0.18405
H      1.01055    -0.55341     0.92472
O      1.74278    -2.27925     0.68048
H      1.26277    -2.78988     0.00600
O     -1.20597    -3.29171    -0.42161
H     -1.39450    -2.39573    -0.78291
O      0.05831    -3.53896    -1.04288
H     -0.01678    -4.47587    -1.23955
