 20
-758.3086619291084
O     -1.27235    -2.23445     0.44563
H     -1.28842    -1.80211    -0.42431
O     -1.73053    -1.18497     1.30370
H     -0.92818    -1.01728     1.81584
O      1.87840     1.53055    -0.01722
H      2.76440     1.88740    -0.14014
O      1.28280     2.48974     0.86313
H      0.34019     2.29414     0.68690
O      1.40357    -1.53182     0.38674
H      0.69589    -2.17715     0.53305
O      1.01601    -0.53968     1.35815
H      1.37077     0.27079     0.93971
O     -0.73650    -1.24373    -2.01536
H     -0.43675    -1.84045    -2.70849
O      0.39795    -0.38950    -1.84654
H      0.83855    -0.78202    -1.06301
O     -1.20635     1.56645     0.46486
H     -1.64006     0.71152     0.61868
O     -1.39488     1.79478    -0.93338
H     -0.61831     1.35591    -1.30961
