 36
-1364.971567863077
O      1.91374    -0.75866    -1.62331
H      1.68241    -0.03690    -2.23017
O      0.65943    -0.92874    -0.94231
H      0.95140    -1.15801    -0.03841
O      4.02870    -0.75007     1.02432
H      3.91562     0.19314     0.83959
O      4.18616    -1.30897    -0.28146
H      3.34114    -1.07542    -0.71279
O     -2.61362    -0.50564     3.19127
H     -2.55703    -0.94621     4.04348
O     -1.43520    -0.99367     2.55957
H     -1.77954    -1.29471     1.69547
O      2.20784     1.43520     0.33992
H      1.81497     0.84492     1.01441
O      1.04621     2.22545     0.06522
H      1.02966     2.24531    -0.90647
O     -3.11405    -2.25206    -0.64368
H     -2.94997    -3.19463    -0.75190
O     -1.93577    -1.84060     0.04165
H     -1.41226    -1.40132    -0.65662
O     -1.28253     1.13692     0.64228
H     -0.37666     1.53113     0.58088
O     -1.99655     2.09118     1.43046
H     -2.25703     1.50939     2.15253
O      0.48718     2.32098    -2.59930
H     -0.29085     2.73374    -2.98755
O      0.43637     0.98525    -3.09440
H     -0.41028     0.67078    -2.70086
O      1.53800    -1.50953     1.53258
H      2.51324    -1.36019     1.47493
O      1.10781    -0.24424     2.03542
H      0.16197    -0.41842     2.21415
O     -1.80135     0.45390    -1.83472
H     -1.74215     0.83174    -0.91947
O     -3.18317     0.59571    -2.13137
H     -3.51778    -0.24818    -1.80530
