 24
-909.9814513340663
O     -1.21665     0.65295    -0.94969
H     -0.34205     0.22145    -1.02366
O     -2.01625    -0.39853    -0.39946
H     -1.76391    -0.36446     0.54359
O     -0.94570    -2.67839    -1.35114
H     -1.42678    -1.87039    -1.06993
O     -1.13442    -3.51544    -0.21276
H     -1.63818    -4.23928    -0.59697
O      1.33839     2.28277    -0.61760
H      1.41004     3.00690    -1.24907
O      2.67527     1.78746    -0.50851
H      2.55741     0.91309    -0.90961
O      1.11870    -0.58992    -0.78751
H      1.05597    -0.73674     0.17782
O      1.64874    -1.83189    -1.22807
H      0.81869    -2.32599    -1.36299
O     -0.74520    -0.24621     2.03116
H     -0.59640     0.73462     2.01550
O      0.58342    -0.71637     1.80012
H      1.00834    -0.60412     2.65440
O     -0.09564     2.23801     1.60766
H      0.55576     2.29792     0.87985
O     -1.31190     2.56263     0.93654
H     -1.30829     1.92497     0.19573
