 32
-1213.3157450219408
O     -0.17854    -1.43161    -1.12124
H     -1.05113    -1.42945    -1.55798
O     -0.40878    -2.24281     0.03227
H     -1.07549    -1.71787     0.52308
O      2.27437    -1.84261     1.31289
H      1.68013    -2.28527     0.69058
O      3.16645    -1.16384     0.42839
H      3.30377    -0.33182     0.91090
O     -3.56801    -0.43563    -1.30589
H     -4.31727    -0.99484    -1.52318
O     -2.59603    -0.90729    -2.23134
H     -2.43958    -0.10851    -2.78067
O     -1.89417     1.30414    -3.54021
H     -1.79579     1.62536    -4.44091
O     -0.55734     0.91543    -3.22713
H     -0.47477     1.28364    -2.32166
O      3.56970     1.30526     1.44871
H      4.11079     2.00030     1.06045
O      2.29534     1.92467     1.57787
H      1.82660     1.56007     0.79642
O     -0.29112     1.63856    -0.70031
H     -0.88141     1.24685    -0.01834
O      0.91508     0.91395    -0.47136
H      0.65198    -0.00171    -0.71623
O     -2.31245    -0.68562     1.08289
H     -2.82410    -0.45555     0.28872
O     -1.59090     0.52077     1.31153
H     -0.85468     0.19402     1.88938
O      1.14125     0.39841     3.56944
H      1.54434     1.04969     2.97381
O      0.45076    -0.43584     2.63644
H      1.17894    -0.95377     2.22560
