 32
-1213.3139929623137
O      1.63048    -2.41520     1.15596
H      1.76890    -3.36171     1.08149
O      0.26940    -2.31510     0.74854
H     -0.10866    -1.80339     1.50075
O     -0.03365    -0.35486    -1.08712
H      0.14445    -1.10610    -0.48505
O      0.53115    -0.79670    -2.31759
H      1.15277    -0.06906    -2.45666
O     -2.76973    -2.15866     0.55253
H     -2.52538    -2.69002    -0.21317
O     -3.92455    -1.44156     0.11981
H     -3.50842    -0.63907    -0.26093
O     -0.67369    -0.43982     2.35412
H     -0.25956     0.37256     1.98480
O     -2.07076    -0.21165     2.17336
H     -2.33671    -1.02435     1.69351
O      1.62219     1.92223    -2.10260
H      1.12330     2.10902    -1.27873
O      2.90013     2.46151    -1.76416
H      3.20293     2.77758    -2.62171
O      3.00813    -0.74403    -0.54310
H      2.54379    -1.29830     0.10388
O      2.97434     0.52783     0.11225
H      3.16978     1.13197    -0.62808
O      0.31715     2.30516     0.20037
H     -0.64654     2.10996     0.19937
O      0.78551     1.47917     1.27161
H      1.58966     1.07972     0.86851
O     -2.46460     0.61814    -0.81101
H     -1.55342     0.28721    -0.97384
O     -2.25277     1.58572     0.21780
H     -2.35638     1.03384     1.02011
