 32
-1213.3092811875638
O      4.08781    -0.01989    -0.06820
H      3.39380    -0.64049     0.20587
O      3.35697     0.90232    -0.87633
H      3.08183     1.58002    -0.24645
O     -0.07761    -1.25224    -0.16444
H     -0.40016    -1.93802     0.43324
O     -0.50209    -1.72573    -1.44945
H      0.22226    -1.33849    -1.97773
O     -2.68346    -0.26501    -2.07923
H     -1.92288    -0.85856    -1.92259
O     -2.01664     0.97445    -2.35915
H     -2.36188     1.50777    -1.61662
O      0.91504     1.34313     0.91255
H      0.75480     1.19904    -0.05088
O     -0.41433     1.60816     1.36567
H     -0.56960     0.85902     1.97905
O      1.31876    -0.00771    -2.28645
H      2.17516     0.15698    -1.84481
O      0.57582     1.06563    -1.69479
H     -0.30526     0.98707    -2.11659
O      1.79358    -0.78078     2.21527
H      1.58322    -0.00522     1.65350
O      2.34454    -1.67150     1.24781
H      2.90083    -2.22518     1.80444
O     -1.80906    -1.42715     2.01712
H     -2.31572    -0.77618     1.49870
O     -0.99191    -0.57407     2.81804
H     -0.14923    -1.05031     2.81840
O     -3.27968     0.29924     0.44941
H     -3.31769    -0.10718    -0.43952
O     -2.80865     1.60533     0.09418
H     -1.95567     1.64423     0.56785
