 20
-758.3077836575878
O     -0.04162    -0.45915     2.20191
H     -0.70428     0.16018     1.87487
O      0.16450    -1.25591     1.03439
H      1.14774    -1.23531     0.97213
O      3.04033    -0.49898    -0.45425
H      2.37299     0.21456    -0.42917
O      2.79636    -1.14608     0.79826
H      3.38388    -0.68054     1.40202
O     -0.69119    -1.32297    -1.49390
H     -0.41698    -1.34129    -0.55126
O     -2.01113    -0.78594    -1.40069
H     -2.56555    -1.56988    -1.32315
O      0.97581     1.22972    -0.29948
H      0.06621     1.40651    -0.00487
O      0.81840     1.21217    -1.71417
H      0.55907     0.29327    -1.87937
O     -1.69943     1.23651     0.30479
H     -1.92502     0.54103    -0.35286
O     -2.97919     1.51582     0.86791
H     -3.07139     2.44370     0.63444
