 32
-1213.313575490266
O      2.92715     0.52205     1.61594
H      3.41664     0.79020     2.40026
O      2.89753     1.71035     0.83044
H      1.93932     1.85239     0.77359
O     -1.86800    -2.37206    -0.91683
H     -2.15652    -3.07266    -1.50952
O     -0.68148    -1.91604    -1.55390
H     -0.94574    -1.04302    -1.91611
O     -1.04477     0.64275    -2.37431
H     -0.12682     0.98309    -2.32830
O     -1.72534     1.57281    -1.52651
H     -2.43020     1.00720    -1.14337
O     -0.03757     1.99406     0.54618
H     -0.64995     1.93058    -0.21797
O     -0.90608     1.77244     1.65984
H     -0.42032     1.05652     2.12835
O      1.51866     1.17315    -1.97873
H      2.22051     1.69691    -2.37996
O      1.80356    -0.13940    -2.45480
H      2.13297    -0.57141    -1.63543
O      1.20815    -1.70997     0.41142
H      0.62108    -1.82171    -0.36323
O      2.47038    -1.39853    -0.18171
H      2.80130    -0.76824     0.48747
O     -0.86939    -1.37777     2.80552
H     -1.59878    -0.98045     2.30919
O      0.19148    -0.46121     2.55954
H      0.68960    -0.91409     1.84449
O     -2.98609     0.05802     1.22216
H     -2.38644     0.83051     1.23573
O     -3.21564    -0.14632    -0.16890
H     -2.78300    -1.00464    -0.31564
