 24
-909.9815403408709
O     -1.77155    -1.24549     1.15727
H     -1.90436    -0.43142     0.63026
O     -1.23737    -2.14836     0.17553
H     -0.56969    -2.58893     0.72335
O      0.41295    -0.90193    -1.55698
H     -0.36523    -1.29177    -1.11155
O     -0.11035     0.32757    -2.08009
H      0.70213     0.87145    -2.12912
O      2.01492    -0.42442     0.53533
H      1.45344    -0.49344    -0.26477
O      1.49914     0.75860     1.16320
H      1.09011     0.36725     1.95910
O     -3.19842     0.98290    -1.03882
H     -3.56689     1.83800    -0.80142
O     -1.98002     1.01019    -0.30031
H     -1.31347     0.93287    -1.01930
O      0.31373    -1.03024     2.76373
H     -0.58490    -1.01366     2.38389
O      0.81178    -2.19481     2.07576
H      1.46727    -1.75194     1.50516
O      1.99582     1.94240    -1.88692
H      2.38726     2.69387    -2.34085
O      1.23471     2.58216    -0.86754
H      1.43411     1.99326    -0.11908
