 20
-758.3043495825
O     -0.93744    -2.85147     1.07629
H     -0.15294    -2.26721     1.14932
O     -1.90161    -2.11292     1.83282
H     -2.00639    -2.65523     2.62028
O      1.20614    -1.20881     0.99531
H      1.08948    -0.63012     0.22262
O      1.37552    -0.26331     2.05766
H      0.51425     0.18530     2.07341
O      0.33531     1.66510    -0.63982
H      0.57557     2.02798    -1.51162
O      0.11838     0.29181    -1.02346
H     -0.75125     0.16426    -0.59431
O      1.27045     2.14975    -3.09503
H      2.21398     2.30460    -3.20738
O      1.08457     0.89187    -3.75851
H      0.87363     0.32917    -2.99900
O     -1.77945     0.29626     0.75643
H     -1.80662    -0.55205     1.24944
O     -1.00282     1.11764     1.63374
H     -0.57860     1.67119     0.96255
