 32
-1213.3103508126896
O     -1.55527    -1.76670     1.61430
H     -2.17704    -1.09210     1.28598
O     -0.50343    -0.88466     2.03246
H      0.23249    -1.51616     2.16211
O     -1.97701     0.34287    -2.22850
H     -1.98188     1.30061    -2.37582
O     -0.64577    -0.02439    -2.58217
H     -0.09122     0.41165    -1.90014
O      2.33413     0.47711     2.07615
H      2.13266     1.38124     1.80165
O      2.80925    -0.04209     0.82900
H      3.05106    -0.94737     1.06928
O     -0.65577     3.78974    -1.46350
H     -0.91774     4.66588    -1.16572
O     -1.84550     3.03308    -1.24135
H     -1.61376     2.52758    -0.43251
O      1.10639     1.05251    -0.92191
H      1.72253     0.47358    -0.42738
O      1.25420     2.29609    -0.22842
H      0.67089     2.86533    -0.75769
O     -0.23295    -2.54917    -1.68402
H     -0.44933    -1.79570    -2.25733
O      0.16235    -1.81392    -0.52629
H     -0.58473    -1.93464     0.09397
O      1.38829    -2.79425     2.10934
H      1.21877    -3.73016     2.26338
O      2.14928    -2.81285     0.89697
H      1.47582    -2.48121     0.25953
O     -2.38343     0.41574     0.38202
H     -2.21535     0.23174    -0.56569
O     -1.30158     1.30675     0.69403
H     -0.72383     0.71397     1.21099
