 32
-1213.2984502501213
O      1.50014    -0.57508     0.94853
H      2.11969    -1.06510     0.35781
O      2.20078     0.63419     1.25251
H      2.08512     1.15233     0.43513
O      1.99294    -3.11879    -0.51551
H      1.04852    -2.93289    -0.41071
O      2.48260    -1.94952    -1.16382
H      1.71012    -1.63872    -1.67628
O     -3.13101    -1.21367    -0.85620
H     -2.50932    -1.40991    -0.12363
O     -3.73864     0.00512    -0.43030
H     -4.38675    -0.29208     0.21611
O     -1.03867     2.28798     0.30258
H     -0.77685     2.11281     1.22931
O     -1.26031     0.95536    -0.16308
H     -2.23409     0.88708    -0.19187
O      0.25759    -0.72510    -1.86822
H      0.56706     0.20500    -1.88819
O     -0.78963    -0.71901    -2.82511
H     -1.55410    -0.87813    -2.25483
O      0.17246     1.67199     2.65917
H      0.99138     1.25111     2.30776
O      0.63711     2.95831     3.06818
H      0.48132     2.91108     4.01582
O     -0.64813    -2.78354     0.88507
H     -0.22898    -2.93714     1.73920
O     -1.29667    -1.54163     1.08292
H     -0.62064    -0.89183     0.79697
O      1.35257     1.69720    -1.99069
H      1.50239     2.37926    -2.65319
O      1.44628     2.40042    -0.75685
H      0.50370     2.46600    -0.48790
