 24
-909.9812756724123
O     -1.50751    -1.48634     0.03865
H     -2.25022    -1.02676    -0.37281
O     -1.52517    -0.85654     1.32815
H     -0.89681    -1.40887     1.81410
O      0.54746    -1.04452    -1.60435
H     -0.17679    -1.25842    -0.98579
O     -0.01929     0.05537    -2.32336
H      0.43068     0.79266    -1.86600
O      2.51783    -1.04672     0.19980
H      1.92399    -0.95871    -0.57207
O      2.86269     0.31534     0.47624
H      2.62641     0.34129     1.42024
O     -3.67110     1.11488    -1.68112
H     -3.80289     2.06376    -1.59000
O     -2.37181     0.96693    -1.10545
H     -1.82609     0.73020    -1.87524
O      1.32790    -0.04539     2.62607
H      0.63581     0.44597     2.15811
O      0.97906    -1.40805     2.34312
H      1.50888    -1.54716     1.53421
O      0.93068     1.84789    -0.60462
H      1.73793     1.41160    -0.26885
O      0.05644     1.68481     0.51660
H     -0.78440     1.48274     0.07475
