 28
-1061.6493490764503
O      0.86367    -0.28368     1.74762
H      0.30854    -0.99589     1.36584
O      2.16798    -0.62721     1.28913
H      2.48266     0.23999     0.99674
O      2.43515    -1.24565    -1.55591
H      2.32966    -1.47348    -0.62019
O      1.20344    -1.70581    -2.11177
H      0.77809    -0.85870    -2.34859
O     -2.96424    -0.06622     1.00612
H     -2.38484     0.61643     1.40852
O     -2.98531    -1.04968     2.04351
H     -1.72772    -1.96732     1.15931
O     -1.04779     1.60609     1.80638
H     -0.28306     1.01113     1.92791
O     -0.65587     2.36015     0.66192
H     -0.98525     1.78915    -0.06230
O     -0.04708     0.66979    -2.26372
H      0.50914     1.40482    -1.93377
O     -1.12967     0.70375    -1.33176
H     -1.20483    -0.23809    -1.06953
O     -1.16275    -1.86274    -0.62824
H     -0.39222    -2.25812    -1.06630
O     -0.85563    -2.10528     0.74876
H     -3.92844    -1.12232     2.21944
O      1.65936     2.32381    -1.01924
H      1.17472     2.46157    -0.18901
O      2.75862     1.51334    -0.60717
H      2.69481     0.77930    -1.23500
