 36
-1364.9714174481924
O      2.03208     0.45777    -0.95960
H      1.23425     0.04132    -1.36209
O      1.54106     1.75064    -0.59768
H      1.39856     1.63247     0.36786
O      1.05042    -2.00485     2.50284
H      1.78876    -1.52739     2.07174
O      0.36592    -0.91088     3.13818
H     -0.54540    -1.11036     2.88512
O     -3.27083     1.14501    -1.39090
H     -2.41722     1.61580    -1.45803
O     -3.28663     0.40450    -2.61175
H     -3.81780     0.95940    -3.19095
O     -2.89742    -0.79674     1.10193
H     -3.16504    -0.55122     0.20765
O     -1.48609    -0.90978     0.94954
H     -1.16933     0.01965     1.01218
O     -0.85051     2.47319    -1.44035
H      0.02518     2.03839    -1.30222
O     -0.89343     3.34809    -0.31233
H     -0.35908     4.09549    -0.59942
O     -0.64247    -0.15808    -3.11663
H     -1.58813    -0.00552    -2.95473
O     -0.26121    -0.55036    -1.79558
H     -0.20714    -1.52037    -1.84558
O      0.75901     1.41648     1.89906
H      0.76000     0.57914     2.41745
O     -0.64807     1.55327     1.65995
H     -0.69229     2.31065     1.03927
O      2.99351    -0.63850     1.25261
H      2.72040    -0.29919     0.36575
O      4.05006    -1.52535     0.90117
H      4.78856    -1.12161     1.36528
O      1.27896    -2.47937    -0.46727
H      1.81200    -3.07886     0.07558
O     -0.01687    -3.06610    -0.41133
H     -0.44829    -2.49802     0.24632
