 12
-454.9647595487603
O      0.24279    -1.73495     1.19620
H      0.55125    -1.76908     2.10745
O     -0.45901    -0.48605     1.19200
H      0.12604     0.05729     0.63968
O      1.64493     0.42553    -0.64280
H      1.81203    -0.47752    -0.93492
O      2.94405     0.83712    -0.20199
H      3.13961     1.52965    -0.84356
O     -2.19267     1.06559    -0.94586
H     -3.00815     1.48808    -0.65545
O     -2.54990    -0.32186    -0.87867
H     -2.04221    -0.60124    -0.10293
