 36
-1364.9783964342569
O      1.91301     0.97970    -1.96046
H      2.86296     0.83442    -2.03394
O      1.71049     1.19072    -0.56940
H      1.75447     0.28028    -0.20920
O     -2.16462    -0.16910    -1.42330
H     -1.60995    -0.09069    -2.22471
O     -2.75406     1.13028    -1.32667
H     -2.00377     1.62887    -0.93572
O     -0.79837    -0.66158     0.78716
H     -1.37465    -0.54731    -0.01971
O     -0.65267    -2.07527     0.91950
H      0.23909    -2.16209     0.54893
O     -0.16999    -0.03874    -3.32767
H      0.58881     0.34648    -2.84037
O      0.24269    -1.40067    -3.43691
H      0.43378    -1.48676    -4.37657
O      2.76518    -1.99952    -1.28395
H      3.03489    -2.06196    -0.35546
O      1.40723    -1.60613    -1.06478
H      1.00903    -1.73654    -1.94387
O      0.47157     0.00023     2.98376
H     -0.03030    -0.28822     2.19263
O      1.20777     1.10589     2.44995
H      0.49342     1.67516     2.08466
O     -3.06427     1.01478     1.74390
H     -3.07997     0.09336     2.03379
O     -4.26225     1.14227     0.97448
H     -3.89634     1.08227     0.07311
O      2.57597    -0.92183     1.38232
H      2.40131    -0.11448     1.90812
O      2.38845    -1.96942     2.34550
H      1.62831    -1.63030     2.84702
O     -0.68445     2.29414    -0.17312
H      0.21422     1.92123    -0.27891
O     -0.82718     2.34975     1.24739
H     -1.68278     1.88692     1.37786
