 16
-606.6378137691738
O     -1.60938     0.24511    -0.19626
H     -1.44978    -0.68864     0.03122
O     -1.08970     0.91274     0.96788
H     -0.72896     1.70727     0.53337
O      1.50268    -0.64227     0.28590
H      2.45287    -0.72205     0.40288
O      1.07698    -0.52914     1.65237
H      0.27390     0.02113     1.52380
O      1.29433     2.09264    -1.03772
H      1.19147     1.19894    -0.67987
O      0.06148     2.69602    -0.64070
H     -0.44279     2.68851    -1.46039
O     -0.11758    -2.66456    -0.66271
H      0.48049    -1.99313    -0.30139
O     -1.26553    -2.41709     0.16219
H     -1.90672    -3.01889    -0.22841
