 36
-1364.9787121842423
O      0.54759     1.00911    -0.30848
H     -0.20485     0.78963    -0.89320
O      1.63564     1.21379    -1.21081
H      2.36000     1.03240    -0.58082
O     -0.87129    -0.87459    -2.02815
H     -0.12035    -1.46601    -2.23831
O     -1.56013    -1.65846    -1.04958
H     -2.02335    -0.96775    -0.55123
O     -0.16729     0.57804     2.91774
H      0.08130     1.47806     2.65030
O      0.91649    -0.18696     2.39721
H      0.44865    -0.94748     1.99147
O      3.06526     0.19366     0.80163
H      2.36730     0.16469     1.48143
O      3.29922    -1.19860     0.58821
H      3.15893    -1.26460    -0.37281
O     -0.06370     2.97455     1.37238
H      0.17036     2.35686     0.65202
O     -1.31661     3.50407     0.91503
H     -1.93844     3.05939     1.50827
O     -2.13468     0.13029     1.17836
H     -1.49958     0.29141     1.90987
O     -3.04690     1.22439     1.30863
H     -3.14751     1.44352     0.37242
O      1.37098    -2.35758    -2.03993
H      1.35527    -2.74485    -1.14278
O      2.48356    -1.46785    -1.95802
H      2.06680    -0.60021    -2.07777
O     -2.97966     1.09179    -2.51526
H     -2.40689     0.37865    -2.83497
O     -2.14212     1.60462    -1.47502
H     -1.93492     2.50607    -1.75268
O      1.10267    -3.01198     0.56177
H      1.84867    -2.52821     0.94896
O     -0.01005    -2.27824     1.07115
H     -0.58019    -2.18728     0.28033
