 36
-1364.977312844397
O      1.56246     3.00692    -0.39496
H      1.27700     2.22524     0.11453
O      0.55872     3.95709    -0.03399
H      1.01901     4.52423     0.59228
O     -1.20287    -1.41667     0.65566
H     -1.65507    -0.99471     1.42422
O     -2.31020    -1.80327    -0.17153
H     -2.54752    -0.92441    -0.53742
O     -1.10193    -0.36003     3.71739
H     -0.30592    -0.35302     3.16676
O     -2.13201    -0.10006     2.76320
H     -2.22549     0.86804     2.79591
O      0.66941     0.76422     0.79084
H      0.02761     0.25313     0.25523
O      1.33522    -0.18461     1.59520
H      1.53673    -0.88880     0.95284
O     -1.55715     2.59374     0.85912
H     -0.90747     3.19152     0.43806
O     -0.93457     2.37818     2.13135
H     -0.22126     1.77156     1.86605
O     -2.22095     0.72478    -0.95398
H     -2.09155     1.35348    -0.21663
O     -0.92366     0.78450    -1.56834
H     -0.86532    -0.07869    -2.03199
O      2.21817     0.22282    -1.43653
H      1.84543     1.00723    -1.86358
O      2.22251    -0.74562    -2.49532
H      2.70548    -1.46058    -2.04991
O     -0.36293    -2.62426    -1.83355
H     -1.16116    -2.41756    -1.30279
O     -0.35210    -1.55294    -2.78667
H      0.60260    -1.34886    -2.81846
O      1.83424    -2.52650    -0.28211
H      1.03740    -2.69162    -0.83053
O      2.86691    -3.03605    -1.12509
H      3.38435    -3.54651    -0.49380
