 32
-1213.315306749789
O      2.38899    -2.36621     0.45320
H      2.48938    -1.56947    -0.11208
O      3.17294    -2.01844     1.59401
H      2.48696    -1.72579     2.20538
O     -2.58913    -0.73782    -0.01314
H     -1.99493    -0.20876     0.55408
O     -2.90872     0.17956    -1.05844
H     -2.43223    -0.20236    -1.81593
O     -0.94246    -0.18033    -2.90480
H     -0.69092     0.72962    -2.63773
O      0.20108    -0.89681    -2.43858
H     -0.18629    -1.56217    -1.83832
O     -1.36455     2.38256    -0.68459
H     -1.99877     1.64992    -0.82187
O     -0.30265     2.02107    -1.57046
H      0.39042     1.69350    -0.96301
O      0.60979     2.64623     2.07515
H      1.32193     3.24589     2.32778
O     -0.51713     3.50638     1.94819
H     -0.71769     3.38048     1.00875
O     -0.37619    -2.83265     0.62982
H      0.54275    -3.08666     0.44481
O     -0.89015    -2.66933    -0.69357
H     -1.73604    -2.22917    -0.48841
O      1.63947     0.86887    -0.14419
H      1.31882     0.32105     0.60275
O      2.28587    -0.09282    -0.98091
H      1.60157    -0.24785    -1.66327
O     -0.71166     0.43344     1.50125
H     -0.31510     1.25338     1.86713
O      0.35524    -0.49201     1.72768
H     -0.06109    -1.33584     1.45378
