 40
-1516.6437320154448
O      1.76586     1.27851    -0.20587
H      2.32185     0.61234    -0.65739
O      0.50276     1.08319    -0.84668
H      0.11188     0.40335    -0.26386
O      3.38754    -0.42311    -1.58458
H      3.01779    -0.81771    -2.40425
O      3.83346    -1.57282    -0.87173
H      4.76894    -1.37119    -0.76744
O     -0.71307     1.13039     4.34959
H     -0.05590     0.99100     3.64143
O     -1.60321     2.04862     3.71304
H     -2.19723     1.43170     3.26008
O      1.00406     0.51391     2.37152
H      1.31804     1.13381     1.69476
O      0.45132    -0.52455     1.54757
H     -0.44293    -0.61891     1.92361
O      0.96652    -2.10882    -3.50497
H      1.01755    -2.15890    -2.53036
O      1.95816    -1.11027    -3.78854
H      1.37314    -0.33628    -3.89568
O     -1.77076    -0.53477    -0.54818
H     -1.68511    -0.51994    -1.52741
O     -2.72943     0.48763    -0.29982
H     -2.18820     1.16897     0.13543
O     -0.10220     0.50213    -3.36962
H      0.10011     0.74127    -2.44083
O     -1.13350    -0.48313    -3.22224
H     -0.66219    -1.27486    -3.54498
O     -2.16593    -0.98272     2.13506
H     -2.64253    -0.90374     1.29454
O     -2.95898    -0.14009     2.96552
H     -2.95966    -0.63796     3.78549
O      0.90613    -2.12171    -0.85894
H      1.63699    -2.21118    -0.22806
O     -0.07780    -3.03536    -0.38922
H     -0.73838    -2.39961    -0.07811
O     -1.10943     2.76578     0.75090
H     -0.49320     2.72326     0.00776
O     -0.25005     3.29643     1.77905
H     -0.72213     2.98262     2.57883
