 40
-1516.6406878871794
O      2.04885    -1.59081    -1.00410
H      1.50171    -2.26903    -1.45442
O      1.18508    -0.45370    -1.10358
H      0.65519    -0.51802    -0.27332
O     -2.82941     0.95514     1.52922
H     -2.39088     1.82381     1.38481
O     -3.38497     0.71138     0.23670
H     -3.35598    -0.25503     0.19992
O      1.56117     2.47782     1.21151
H      2.20109     2.57003     0.49137
O      1.91082     1.18362     1.72617
H      1.05310     0.87517     2.06439
O     -0.00089    -0.90813     1.24394
H      0.55915    -1.55982     1.71611
O     -0.38709    -0.05466     2.31086
H     -1.29239     0.19596     2.03716
O     -1.08143     2.89735     1.21853
H     -0.10794     2.77637     1.17266
O     -1.30718     3.97698     0.30975
H     -1.32161     3.48192    -0.52852
O     -1.37510     1.02980    -1.47395
H     -2.16448     1.17012    -0.91152
O     -0.99652     2.36165    -1.78675
H     -0.02748     2.27937    -1.81897
O     -1.66316    -1.66749    -1.73684
H     -1.40775    -0.72429    -1.68283
O     -2.37782    -1.87066    -0.51096
H     -1.73877    -2.41787    -0.02636
O      0.27858    -3.47778    -1.67639
H     -0.47948    -2.92312    -1.94966
O     -0.05706    -3.59930    -0.28277
H      0.75618    -3.97688     0.08221
O      2.40134    -3.28447     1.16383
H      2.49033    -2.52723     0.55919
O      1.72382    -2.67910     2.25594
H      2.37696    -2.70450     2.96315
O      2.61819     1.77474    -1.35097
H      2.17187     0.90147    -1.32229
O      1.68179     2.53907    -2.10456
H      2.14843     2.68246    -2.93381
