 32
-1213.3034416135456
O      2.06957    -3.22108     1.11488
H      1.24007    -2.95166     1.53431
O      2.02745    -2.49877    -0.11326
H      1.13944    -2.72782    -0.46200
O     -1.37890    -2.63598     0.46560
H     -1.35630    -1.68538     0.65975
O     -0.58397    -2.74510    -0.71859
H     -0.87969    -1.98247    -1.25304
O     -0.84957    -0.30124    -1.71178
H      0.05534    -0.01433    -1.49641
O     -1.12517     0.33749    -2.95382
H     -1.76131     0.99639    -2.64669
O     -1.75138     3.37810    -1.52895
H     -0.86836     2.97939    -1.66391
O     -2.45939     2.22803    -1.05178
H     -3.37174     2.53064    -1.08957
O      0.71060     2.52411    -2.10144
H      1.10632     2.66809    -2.97006
O      1.62585     3.17032    -1.21454
H      1.97681     2.39572    -0.74845
O      2.08139    -0.12286     1.06081
H      2.24068    -0.99692     0.62187
O      1.35891     0.56639     0.03861
H      0.53676     0.84507     0.50502
O      0.23194    -1.97979     3.08077
H      0.61168    -2.22694     3.93042
O      0.35896    -0.55966     3.11174
H      1.09046    -0.39957     2.47623
O     -1.73171     0.20830     1.57282
H     -1.16023     0.00650     2.33527
O     -1.00036     1.28902     0.99458
H     -1.61142     1.58312     0.28719
