 32
-1213.3119438580952
O     -0.05932    -0.23091     2.72237
H     -0.47118    -0.98569     2.24411
O      1.24332    -0.70902     3.02003
H      1.54920    -1.03036     2.16042
O     -0.89970    -2.22670     1.18971
H     -0.16643    -2.59905     0.66329
O     -1.76348    -1.68761     0.18795
H     -2.27340    -1.03336     0.72005
O     -0.77569    -0.58125    -2.04298
H     -1.15785    -1.00898    -1.24785
O     -1.78822     0.38422    -2.33463
H     -1.29273     0.99995    -2.88733
O      0.89150     1.49005     0.95093
H      0.58918     1.01999     1.76324
O     -0.28253     1.32355     0.15333
H     -0.17225     2.02983    -0.51800
O      0.67636     2.37872    -2.89767
H      1.34850     1.83971    -2.42289
O      0.08756     3.06969    -1.79280
H      0.50238     3.93818    -1.83272
O      2.21287     0.87822    -1.31379
H      1.85034     0.95715    -0.40700
O      1.87432    -0.44574    -1.71493
H      0.90049    -0.40683    -1.85319
O      2.31685    -1.98267     0.40399
H      2.34860    -1.44390    -0.42037
O      1.41177    -3.01269    -0.00611
H      1.94525    -3.80143     0.12445
O     -2.63322     1.43995     1.38641
H     -1.75696     1.31060     0.97294
O     -2.97021     0.09533     1.74490
H     -2.98542     0.13504     2.70656
