 24
-909.9780303417293
O     -1.13110    -1.44345    -0.10748
H     -1.70796    -1.11151     0.61621
O     -1.08765    -0.28246    -0.94067
H     -0.63544    -0.61135    -1.74298
O      0.18555    -0.96750    -3.18979
H      0.11411    -1.77283    -3.70952
O      1.34102    -1.24673    -2.40138
H      1.69809    -0.34777    -2.31088
O      0.93059    -0.41637     1.92709
H      0.55917     0.47923     1.80210
O      1.31195    -0.75017     0.58323
H      0.50250    -1.20634     0.26366
O     -2.46080    -0.41724     1.93532
H     -2.38203     0.54638     2.02139
O     -1.83326    -0.92669     3.11002
H     -0.91651    -1.04294     2.81479
O     -1.27896     1.87936     0.60975
H     -1.10464     1.10511     0.04202
O     -0.07095     2.00042     1.35586
H      0.56766     2.24464     0.66984
O      1.93558     1.52423    -0.58414
H      1.81290     0.61616    -0.22486
O      2.30981     1.22606    -1.93059
H      1.99310     2.01129    -2.38696
