 40
-1516.6477958632868
O      3.02961     1.30688     2.47325
H      2.57831     1.80385     1.76906
O      3.72227     0.34621     1.67522
H      3.15206    -0.44325     1.74628
O      2.06523     1.88087     0.06110
H      1.38288     1.99783    -0.63008
O      3.15153     1.33687    -0.70794
H      3.60331     0.87111     0.02330
O     -2.65816     0.23002     1.02282
H     -2.84321     0.34680     1.95887
O     -1.25602     0.46240     0.99590
H     -0.98202    -0.22529     0.35114
O      0.89140     0.15208     3.64801
H      1.71904     0.64577     3.48948
O     -0.09453     1.14816     3.36120
H     -0.40683     0.85773     2.48806
O     -0.47990     0.97600    -2.36467
H      0.33668     0.43088    -2.35680
O     -0.07037     2.10236    -1.57531
H     -0.92413     2.31266    -1.15527
O     -0.70456    -2.83521    -0.14536
H     -0.21677    -2.56046     0.65145
O     -0.88701    -1.54177    -0.71137
H     -1.81947    -1.58532    -1.03453
O     -2.68140     1.98215    -1.00102
H     -2.81493     1.34278    -0.28296
O     -3.11330     1.25323    -2.15643
H     -2.24588     1.10576    -2.57692
O      2.13727    -1.76948     1.34200
H      2.03624    -1.73797     0.37073
O      0.77041    -1.70743     1.75087
H      0.81933    -1.11795     2.54134
O      1.79838    -0.42252    -2.20983
H      2.42585     0.16003    -1.73067
O      1.67571    -1.52903    -1.30880
H      0.71282    -1.68311    -1.32709
O     -3.45967    -1.37541    -1.49274
H     -3.63036    -0.44761    -1.74786
O     -3.61366    -2.05391    -2.73822
H     -4.32621    -2.66076    -2.51815
