 40
-1516.6438895229446
O      1.45073     3.28161    -0.51635
H      1.92532     3.98742    -0.96671
O      0.09395     3.69192    -0.66710
H     -0.22636     3.01588    -1.30713
O     -0.80819    -1.95852     1.01619
H     -0.57783    -1.00834     1.15176
O     -2.22884    -1.91997     0.81187
H     -2.25108    -1.98580    -0.16338
O      0.48180     0.04667     2.85897
H      1.24140    -0.52976     2.68747
O      0.19061     0.38050     1.49438
H     -0.31194     1.22688     1.59577
O     -2.33675     2.09165     0.68389
H     -2.73116     1.45742     1.32287
O     -1.28719     2.62197     1.50050
H     -0.98221     3.36129     0.95260
O     -3.03119     0.15137     2.34876
H     -2.86979    -0.69463     1.87514
O     -2.64248    -0.15867     3.68531
H     -1.68271    -0.06159     3.63446
O      1.77784     0.30827    -1.96217
H      2.39042    -0.41902    -2.22296
O      2.27475     0.62085    -0.65512
H      2.01275     1.55609    -0.58320
O      2.26414    -2.84175    -2.86556
H      1.40596    -2.49002    -2.57518
O      3.18810    -1.91659    -2.29185
H      3.25620    -2.23124    -1.37894
O     -1.73596     0.94141    -1.70149
H     -1.92187     1.37460    -0.84159
O     -0.58845     1.63672    -2.17071
H      0.12287     0.97128    -2.09802
O      1.95556    -1.89314     1.70719
H      1.15759    -2.43074     1.80025
O      1.99626    -1.80901     0.28312
H      2.06039    -0.84185     0.12242
O     -0.13255    -1.93784    -1.82214
H      0.10306    -2.06464    -0.88467
O     -1.53625    -1.72035    -1.75155
H     -1.59482    -0.75145    -1.87957
