 24
-909.9776335227879
O     -2.50369    -0.14811    -0.10205
H     -1.93027     0.34260    -0.73017
O     -1.52432    -0.76446     0.74636
H     -1.40153    -0.09629     1.44710
O      0.35179    -1.72482    -0.82886
H     -0.25817    -1.36977    -0.13417
O     -0.52528    -1.92470    -1.94039
H     -1.26448    -2.39851    -1.54165
O      1.65307     0.59789    -1.32265
H      1.45983    -0.35313    -1.21272
O      2.14004     0.95244    -0.02323
H      1.40355     1.49724     0.31213
O     -1.19647     0.56735    -2.90512
H     -0.96212    -0.34086    -2.64723
O     -0.89300     1.27431    -1.70591
H      0.08361     1.15833    -1.65428
O      1.06539    -1.58376     2.09752
H      1.47020    -2.30633     2.59062
O      1.89984    -0.47586     2.44240
H      2.31320    -0.28236     1.58373
O     -0.44475     1.31775     2.10502
H      0.38967     0.90567     2.37270
O     -0.00262     2.16481     1.03628
H     -0.70676     2.04198     0.38581
