 16
-606.6366575626972
O     -1.33889     2.65487     0.95861
H     -2.12964     2.92518     1.43360
O     -1.17918     1.32704     1.45322
H     -0.28113     1.37946     1.84769
O      1.36787     1.24071     2.19223
H      2.08634     1.77193     1.83477
O      1.67401    -0.07753     1.72724
H      1.26528    -0.08273     0.83819
O     -0.76069    -0.58865    -0.40815
H     -1.01551     0.11706     0.21554
O      0.56593    -0.15366    -0.74946
H      0.81107    -0.86939    -1.36094
O     -0.68653    -2.73396    -2.34727
H     -1.04567    -2.12078    -1.68914
O      0.56619    -2.08948    -2.62920
H      0.43097    -1.78060    -3.53118
