 36
-1364.9756136302635
O     -0.37561     1.53062     1.16624
H      0.45112     1.08947     1.45970
O      0.10480     2.43069     0.15724
H     -0.13159     1.94665    -0.66375
O     -1.77650     1.62141    -2.52148
H     -2.48266     1.14243    -2.06830
O     -0.66700     0.93883    -1.92093
H     -0.07814     0.77267    -2.67584
O      1.88527     0.24174     1.84297
H      2.50993     0.65979     1.20746
O      2.22309    -1.13454     1.67682
H      1.48353    -1.56346     2.13205
O      2.50801     1.33418    -2.86954
H      3.17599     1.35398    -3.56152
O      1.72580     0.19972    -3.23649
H      1.86424    -0.36562    -2.45444
O     -4.19337    -0.82684     1.71970
H     -4.11171    -0.24609     2.48152
O     -3.16865    -1.80124     1.96093
H     -2.46946    -1.43482     1.37822
O     -1.99266    -0.30268     0.22268
H     -1.51174     0.47034     0.60064
O     -3.10915     0.33351    -0.41009
H     -3.80150    -0.02396     0.17365
O      3.00919     1.33570    -0.23289
H      2.79353     1.42653    -1.18239
O      2.76566     2.64405     0.27483
H      1.78741     2.65858     0.28411
O      1.55267    -1.17960    -0.91511
H      1.90036    -1.21348     0.00342
O      0.25856    -1.76538    -0.77576
H     -0.32194    -0.99806    -0.93723
O     -0.71173    -3.59518     1.99651
H     -1.62454    -3.50144     2.29469
O     -0.38420    -2.23388     1.75265
H     -0.23410    -2.22573     0.78484
