 32
-1213.3111038058464
O      3.11275    -0.21104    -0.39554
H      2.85050    -1.10942    -0.65855
O      3.52633    -0.40067     0.95527
H      2.72305    -0.15837     1.43975
O     -0.06256    -1.47293    -0.88617
H      0.15167    -0.51172    -0.84174
O      1.00718    -2.05895    -0.13415
H      0.78038    -1.74208     0.76013
O     -1.59588     2.38543    -0.26927
H     -0.77686     2.25625    -0.76918
O     -1.06467     2.42443     1.06725
H     -1.84559     2.16049     1.58155
O     -0.03111    -0.75976     1.95431
H     -0.83610    -0.54071     2.47271
O      0.79442     0.37315     2.23333
H      0.29100     1.09446     1.82078
O      1.11006     1.41092    -2.21953
H      1.38856     0.54694    -2.57238
O      0.85040     1.05689    -0.85337
H      1.75698     0.81204    -0.55878
O      0.98870    -1.72647    -3.58178
H      0.73422    -2.12016    -2.73540
O      2.09151    -0.93010    -3.14201
H      2.73067    -1.05413    -3.85157
O     -2.94615     0.85971     2.34670
H     -2.93474     0.20124     1.61071
O     -2.11279     0.18361     3.28864
H     -2.74717    -0.13702     3.93722
O     -2.60618    -0.72844     0.29048
H     -1.89773    -1.25075    -0.12535
O     -3.04758     0.11699    -0.77410
H     -2.61085     0.96197    -0.56562
