 24
-909.9828909511446
O     -2.03438     2.20463     1.75364
H     -1.41898     2.80753     1.31635
O     -1.24658     1.02005     1.81668
H     -1.65941     0.46781     1.12171
O      1.93992    -1.40343    -1.44638
H      1.93193    -2.18370    -0.87151
O      0.86591    -1.69781    -2.34725
H      0.16329    -1.10691    -2.01481
O      1.16931     0.03238     1.32426
H      0.33291     0.47599     1.58197
O      1.49209     0.69099     0.09656
H      1.65983    -0.06898    -0.51179
O     -1.09882    -0.15615    -1.39810
H     -0.98924     0.79717    -1.21552
O     -1.64988    -0.66566    -0.18466
H     -1.10252    -1.45798    -0.02284
O      1.06057    -2.60323     0.95655
H      1.05817    -1.64778     1.17267
O     -0.31004    -2.80854     0.63487
H     -0.62047    -3.32257     1.38669
O     -0.65919     2.45487    -1.27924
H     -0.20844     2.93687    -1.97993
O      0.02658     2.88831    -0.10829
H      0.62800     2.12306     0.01496
