 28
-1061.6480256606587
O      1.29363     1.52337    -0.41340
H      0.62104     1.79412     0.24267
O      0.95452     2.29018    -1.56360
H      0.05348     1.96360    -1.74999
O     -1.82545    -1.44935     0.46980
H     -1.59351    -1.28071    -0.46405
O     -0.87182    -2.44149     0.85790
H     -0.03502    -2.05999     0.50684
O     -0.64889    -0.27746     3.46315
H     -0.96086    -0.22776     4.37202
O     -0.03354    -1.55938     3.40056
H      1.32728    -0.17407    -0.11492
O     -1.87003     1.16690     0.95355
H     -1.89337     0.18904     1.02649
O     -0.57906     1.49295     1.46558
H     -0.46131     0.85810     2.19661
O     -1.44606     1.07818    -1.74656
H     -1.70378     1.15467    -0.80765
O     -1.08383    -0.30581    -1.83202
H     -0.34128    -0.26261    -2.47233
O      2.18326    -1.17817     1.25440
H      1.58466    -1.33495     1.99710
O      1.27937    -1.11866     0.15634
H     -0.59800    -2.00235     2.74177
O      2.13532     0.35925    -3.09959
H      1.87739     1.15022    -2.58796
O      0.87203    -0.05713    -3.61585
H      0.86507     0.30696    -4.50570
