 32
-1213.306425803703
O      4.15360     0.45611    -0.54697
H      4.87991     0.81638    -0.02705
O      3.66333    -0.59398     0.29174
H      2.82898    -0.20095     0.62691
O     -0.82133    -1.52796     0.07527
H      0.03795    -1.49826    -0.41062
O     -1.74266    -1.28093    -0.98746
H     -2.59942    -1.41567    -0.54222
O     -1.22102     1.31203    -0.76289
H     -1.43184     0.37911    -0.96765
O     -2.29600     1.66446     0.11196
H     -1.96288     1.37059     0.97919
O      1.35639     0.53203     1.04979
H      1.33062     1.38574     0.58118
O      1.48191     0.91966     2.42448
H      0.66294     0.52658     2.76466
O      1.17724     1.21377    -2.04866
H      0.31988     1.46296    -1.65710
O      2.08367     2.00223    -1.27199
H      2.83270     1.38427    -1.17256
O      2.48809    -2.01388    -1.92401
H      3.07304    -1.91997    -1.16284
O      1.32631    -1.37176    -1.40927
H      1.36360    -0.48706    -1.83260
O     -0.86889    -0.52682     2.51856
H     -0.78755    -0.90032     1.61480
O     -2.03693     0.28697     2.41327
H     -2.72080    -0.35159     2.17258
O     -4.04171    -1.04004     0.35643
H     -4.87969    -1.51298     0.38010
O     -4.34062     0.01836    -0.55758
H     -3.67565     0.68106    -0.28617
