 40
-1516.644655415106
O      1.84715    -0.57135     2.53702
H      1.78312    -1.20838     3.25585
O      3.03362    -0.99145     1.87288
H      2.67282    -1.37210     1.04063
O      0.30089     2.22932    -0.02264
H     -0.39142     1.75025    -0.54078
O      0.12194     1.65642     1.28528
H      0.86426     2.07252     1.76158
O      2.48702     3.11581     1.51690
H      3.23957     2.49897     1.59137
O      2.62101     3.46424     0.12448
H      1.73597     3.17892    -0.16482
O     -0.61876    -1.57524     1.46458
H      0.10902    -0.93215     1.47978
O     -0.53277    -2.13640     0.14606
H     -1.45605    -2.02257    -0.18382
O     -2.75028     0.65500     1.16362
H     -1.92390     1.00285     1.52710
O     -2.98635    -0.51167     1.94918
H     -2.16281    -1.01983     1.81059
O     -0.76281    -0.24599    -2.06922
H      0.13837    -0.16877    -1.68932
O     -1.44801     0.80014    -1.37875
H     -2.01018     0.29459    -0.76259
O     -2.41726    -1.39267    -3.98683
H     -1.88120    -0.91810    -3.32607
O     -3.65313    -1.53639    -3.28027
H     -4.25297    -0.96783    -3.77339
O     -3.00552    -1.64117    -0.73424
H     -3.33485    -1.65365    -1.66117
O     -4.06094    -2.29376    -0.02109
H     -4.20611    -1.63101     0.66806
O      1.67616    -0.25605    -1.00308
H      2.47309     0.25580    -0.73591
O      1.96624    -1.57485    -0.51517
H      1.04910    -1.90815    -0.39993
O      3.88444     1.20304    -0.40042
H      3.62354     2.13719    -0.52107
O      4.26716     1.26261     0.98291
H      3.91934     0.41470     1.31181
