 36
-1364.9743679759908
O      2.71266     0.63068     0.95685
H      2.32660     0.22372     1.75467
O      2.64131     2.01969     1.24953
H      2.10173     2.33530     0.51253
O      0.36567     2.37805    -1.97080
H      0.78021     1.48994    -1.85222
O      1.17443     3.20617    -1.14072
H      1.72237     3.65100    -1.79442
O      0.14074    -0.79830     3.00683
H     -0.00303    -1.01054     3.93242
O      1.55901    -0.92036     2.90832
H      1.65113    -1.69857     2.30853
O     -2.27619    -0.42323    -1.81047
H     -2.48846     0.47637    -2.11771
O     -1.54353    -0.97381    -2.90648
H     -0.69713    -1.15601    -2.47796
O     -2.14882     2.35608    -1.01687
H     -1.24493     2.49779    -1.36182
O     -2.86550     2.16782    -2.23269
H     -3.70349     2.58794    -2.01897
O     -1.28597    -2.52585     0.94431
H     -1.05474    -1.94130     1.67942
O     -2.62133    -2.14019     0.66425
H     -2.50754    -1.74115    -0.20967
O      1.66356     0.10024    -1.38047
H      2.15306     0.25539    -0.53196
O      0.70541    -0.87522    -0.96214
H      0.08833    -0.33254    -0.41258
O     -0.38480     1.56616     1.33732
H     -0.05824     1.08318     2.10930
O     -0.95524     0.46848     0.60567
H     -1.74093     0.88614     0.20949
O      1.83401    -2.49467     0.78371
H      1.46568    -2.00979     0.01214
O      1.14410    -3.74305     0.73815
H      0.21792    -3.45299     0.72098
