 32
-1213.3109971593778
O      1.13109     1.09407    -0.93687
H      0.19505     1.31016    -0.77394
O      1.07427     0.03404    -1.88958
H      1.13645    -0.76585    -1.31947
O      0.07207    -0.67557     1.47334
H     -0.16325    -0.01301     2.16262
O      1.05503    -1.47967     2.11382
H      1.84683    -0.96696     1.89001
O     -1.41088    -1.42171    -3.16129
H     -1.81530    -1.95774    -3.84928
O     -0.63351    -0.48713    -3.91155
H      0.04101    -0.26333    -3.24307
O      2.69770     0.49819     1.10311
H      2.17325     0.73636     0.30744
O      2.50035     1.64198     1.92175
H      3.35074     2.08850     1.86357
O     -1.17020     2.55518     0.18704
H     -0.65071     2.85241     0.95364
O     -2.14637     1.76149     0.88549
H     -2.23434     1.01070     0.25890
O      1.09877    -2.30161    -0.63817
H      0.77118    -2.45424     0.26454
O      0.40927    -3.27227    -1.41973
H     -0.21634    -2.71475    -1.90083
O     -1.93237    -1.39806    -0.14664
H     -1.20096    -1.13295     0.44284
O     -2.08761    -0.18666    -0.90141
H     -1.91465    -0.50754    -1.80567
O      0.05342     2.50713     2.54845
H      0.93002     2.11999     2.38079
O     -0.66062     1.37343     3.06200
H     -1.51732     1.52274     2.62475
