 24
-909.9800196915861
O     -1.54432     0.71192    -2.10516
H     -2.29172     0.30697    -1.63750
O     -1.65624     2.08959    -1.72204
H     -0.84882     2.19560    -1.18803
O     -0.16217    -2.10082    -1.31608
H      0.45728    -1.99713    -0.56926
O      0.37917    -1.11274    -2.19843
H     -0.32594    -0.43650    -2.19207
O      1.66330    -1.11060     0.31745
H      1.80278    -0.70893     1.20090
O      2.15214    -0.06408    -0.53439
H      1.78826    -0.38687    -1.37926
O     -2.53445    -1.30235    -0.32507
H     -1.76451    -1.75508    -0.72286
O     -1.94160    -0.86285     0.89738
H     -2.49176    -1.30444     1.55087
O      2.12250    -0.11855     2.72943
H      2.83317     0.44262     3.05411
O      0.95380     0.49331     3.27120
H      0.59972     0.95559     2.48672
O     -0.20997     1.57184     1.11185
H     -0.76567     0.86002     0.75150
O      0.49454     2.04477    -0.03751
H      1.14913     1.33273    -0.20279
