 32
-1213.3148366894925
O      2.10539    -0.17919     1.03997
H      1.21924    -0.57452     1.12743
O      2.01411     0.97742     1.86440
H      1.80407     1.68301     1.22312
O      1.06570    -2.25519    -2.26040
H      1.25848    -2.68090    -3.10184
O     -0.10832    -2.93488    -1.82121
H     -0.75824    -2.19626    -1.87028
O     -1.70375    -0.88008    -1.51919
H     -1.89477     0.03917    -1.25341
O     -2.71238    -1.60377    -0.81587
H     -2.20210    -1.92195    -0.04472
O     -2.45751     1.57802    -0.70899
H     -3.37544     1.74595    -0.47888
O     -1.78516     2.02441     0.46404
H     -1.06415     2.55058     0.06906
O     -1.19883    -2.31854     1.32118
H     -1.13506    -1.47214     1.80707
O      0.18045    -2.48219     0.96024
H      0.10046    -2.94503     0.11346
O      2.51337     0.51778    -1.46048
H      2.57990     0.30514    -0.50600
O      1.10745     0.32105    -1.60440
H      1.07479    -0.63725    -1.82501
O      1.48143     3.05844     0.27629
H      2.15479     3.52778    -0.22637
O      0.51710     2.74740    -0.72592
H      0.80071     1.85591    -1.04192
O     -0.30738     0.85244     3.16848
H      0.64910     0.94589     3.01852
O     -0.62270     0.14502     1.97413
H     -1.05429     0.83025     1.42956
