 32
-1213.3081216001515
O      1.99416     1.18692     0.72213
H      1.29575     0.55781     1.01100
O      1.23868     2.39534     0.58263
H      0.82570     2.49503     1.46184
O     -0.21302    -2.22655    -0.68938
H      0.46453    -2.61445    -1.28094
O     -0.96569    -1.40634    -1.58709
H     -0.53371    -0.54125    -1.47500
O     -0.76764     1.48344    -0.95548
H     -0.01839     1.87919    -0.45862
O     -1.88403     1.77940    -0.10973
H     -2.39438     0.94353    -0.15919
O     -0.30848     2.76604     2.74188
H     -0.64364     3.63923     2.96312
O     -1.50402     2.03161     2.51141
H     -1.54936     2.00265     1.53043
O      2.77122     0.09887    -1.66068
H      2.59161     0.60462    -0.84095
O      1.73801     0.57948    -2.51942
H      2.25130     0.96847    -3.23397
O      2.65647    -2.63976    -1.28775
H      2.65866    -1.70291    -1.54648
O      1.76766    -3.17815    -2.27188
H      2.08839    -4.08151    -2.33999
O     -0.39267    -0.65901     2.67995
H     -1.07342     0.01748     2.79450
O     -0.03017    -0.39836     1.32838
H     -0.24661    -1.22009     0.84657
O     -3.01105    -1.25246     1.09640
H     -3.90799    -1.57596     1.22601
O     -3.12857    -0.62370    -0.17675
H     -2.49787    -1.14253    -0.71802
