 20
-758.3174104674665
O     -1.33356    -2.29858     0.23056
H     -1.56339    -1.41816     0.58937
O      0.01337    -2.40769     0.67757
H     -0.04709    -3.06327     1.37927
O      0.97349     0.41391     1.97498
H      1.16576     1.32056     1.67615
O      1.60187    -0.30749     0.91082
H      0.96786    -1.03547     0.76060
O      0.91697     2.40643     0.19799
H     -0.01492     2.15594     0.05505
O      1.54754     1.65751    -0.84605
H      1.76341     0.85292    -0.33853
O     -0.99269    -0.54182    -2.00375
H     -0.95714    -1.45098    -1.67233
O      0.29664    -0.37346    -2.59522
H      0.58095     0.46138    -2.19407
O     -1.43715     1.15807    -0.04515
H     -1.30903     0.52323    -0.78128
O     -1.56460     0.26808     1.06747
H     -0.69872     0.39167     1.50140
