 40
-1516.6365848645837
O     -1.02271     3.42762     1.69671
H     -1.53072     4.22932     1.54272
O      0.27686     3.81213     1.27047
H      0.34904     3.36686     0.39846
O      3.43411    -0.28267    -0.63286
H      4.33516    -0.37540    -0.31032
O      2.83694    -1.50045    -0.20480
H      2.35470    -1.24511     0.60987
O      0.50073    -0.68552    -2.32067
H     -0.41934    -0.78763    -2.61162
O      0.81439    -2.02463    -1.92678
H      1.60292    -1.87847    -1.36199
O     -2.48979     0.88042     1.25378
H     -1.89586     1.64671     1.29401
O     -1.70409    -0.00722     0.47661
H     -0.87376    -0.09458     1.01500
O     -2.03167     0.72343    -2.84972
H     -2.95875     0.62377    -3.08757
O     -2.10694     1.46566    -1.63663
H     -2.10833     0.76872    -0.93618
O      0.81843     1.20995    -0.44673
H      0.83578     0.57933    -1.20302
O      0.35099     2.43155    -1.03640
H     -0.55107     2.17004    -1.31644
O      2.73893     1.91614     1.36878
H      2.09966     1.64577     0.67709
O      1.93728     1.85579     2.55407
H      1.52666     2.73360     2.57119
O     -1.30989    -3.93168     0.88276
H     -1.49222    -3.85863    -0.07354
O     -1.02330    -2.55868     1.15490
H     -1.77909    -2.26203     1.67834
O      0.34711    -0.24525     2.13875
H      0.98171     0.47602     2.38238
O      1.20116    -1.38401     1.93692
H      0.52146    -2.02826     1.66332
O     -1.53540    -3.23995    -1.76283
H     -0.58718    -3.07333    -1.92175
O     -1.98382    -1.88583    -1.69209
H     -1.72039    -1.63598    -0.78988
