 32
-1213.3097180632421
O      1.51658    -2.10561     0.85771
H      2.01515    -1.54989     1.47163
O      2.41613    -2.21231    -0.25140
H      1.78405    -2.10991    -0.98942
O      1.61833    -0.12969     2.92476
H      0.70738    -0.25620     3.22734
O      1.42607     1.00873     2.08403
H      1.94847     1.68947     2.52194
O     -1.31805     1.14407    -2.88899
H     -0.54170     0.53775    -2.93736
O     -2.40709     0.27203    -3.18185
H     -2.61914     0.54165    -4.07994
O     -1.61604     2.66673    -0.32399
H     -1.60024     2.34997    -1.24032
O     -0.88757     1.59590     0.27928
H     -1.25374     1.52729     1.17869
O      1.54435     2.15096    -0.68497
H      0.61889     2.16313    -0.38042
O      1.84596     0.75846    -0.52271
H      1.69426     0.64072     0.43557
O      0.87516    -0.41542    -2.68386
H      1.36102    -0.02084    -1.92170
O      0.60080    -1.73681    -2.20285
H     -0.26129    -1.61175    -1.75843
O     -1.46211    -1.23766    -0.58366
H     -1.44747    -0.27665    -0.43667
O     -1.08639    -1.74193     0.69208
H     -0.10654    -1.86058     0.62855
O     -1.86530     0.04461     2.46941
H     -1.69041    -0.71389     1.86611
O     -1.08320    -0.32771     3.60166
H     -1.75010    -0.66217     4.20841
