 32
-1213.310255705501
O      0.03898     2.01713     2.59270
H     -0.26174     1.21144     3.03365
O      1.42849     1.69059     2.43139
H      1.57842     2.02629     1.53746
O     -2.84039    -1.05389    -1.81088
H     -3.32857    -1.40167    -1.04917
O     -1.75828    -1.99481    -1.85178
H     -1.00996    -1.42551    -1.60229
O      1.41838     1.71925    -0.49851
H      2.15279     1.57220    -1.12368
O      0.68363     2.79747    -1.08421
H     -0.15216     2.34687    -1.28075
O     -1.93276     1.31304    -0.77109
H     -2.27008     0.48759    -1.17741
O     -1.93049     0.96280     0.61818
H     -1.14178     1.41939     0.94942
O      3.29619     0.12251    -1.90889
H      2.73198    -0.61862    -1.63712
O      2.92511     0.27711    -3.27722
H      3.73443     0.01703    -3.72590
O      0.25161    -0.65088    -0.75057
H      0.58495     0.24714    -0.54163
O      1.38211    -1.45587    -0.39007
H      1.35142    -1.39078     0.59387
O     -0.10587    -0.74671     2.58436
H     -0.56341    -1.37708     1.98649
O      1.27094    -0.97533     2.23870
H      1.60449    -0.07057     2.37373
O     -2.77898    -1.55447     0.89048
H     -2.43265    -0.64119     0.90760
O     -1.57558    -2.32446     1.00507
H     -1.44836    -2.64250     0.09706
