 32
-1213.3107083833786
O      2.53142    -1.38364     2.58137
H      2.92444    -1.56710     3.43984
O      1.14288    -1.31586     2.89151
H      0.96207    -0.35326     2.79668
O     -0.49952    -0.65716    -2.90429
H     -0.83049    -1.46580    -2.46016
O     -1.74935     0.05616    -3.02850
H     -1.40825     0.96197    -2.96449
O     -1.80506    -2.49768    -1.50529
H     -1.43680    -2.50425    -0.60631
O     -3.11290    -1.95604    -1.29450
H     -3.04210    -1.14161    -1.81399
O      0.88503     1.26625    -1.81046
H      0.58903     0.40737    -2.18538
O     -0.21193     2.10141    -2.17746
H     -0.71646     2.12587    -1.35235
O      2.64534     0.98191     0.14962
H      2.10629     1.28738    -0.60378
O      2.31017    -0.41006     0.09942
H      2.58094    -0.71950     0.98632
O     -1.98515     1.15059    -0.15868
H     -1.43663     0.36084     0.05049
O     -1.67645     1.99165     0.95213
H     -2.53792     2.10644     1.36612
O      0.40589     1.20041     2.44527
H     -0.31138     1.51460     1.86025
O      1.41239     2.19743     2.26024
H      1.91867     1.82130     1.51786
O     -0.26570    -0.76775     0.42657
H      0.64213    -0.61715     0.07569
O     -0.23886    -2.16657     0.71681
H      0.16556    -2.10885     1.60126
