 20
-758.3061167460891
O     -0.41467    -2.97651     0.16980
H     -0.68949    -3.70116     0.74260
O     -1.67267    -2.46217    -0.28454
H     -1.72671    -1.64049     0.23388
O      2.12315     1.96086    -0.23879
H      2.91123     2.41458     0.07784
O      2.44820     0.59043    -0.02559
H      1.85086     0.36525     0.70478
O      0.01433    -0.02247    -1.37768
H      0.97077    -0.07747    -1.53485
O     -0.55733    -0.73575    -2.48927
H     -0.91725    -1.50286    -2.02309
O     -0.95992    -0.24926     1.52299
H     -0.83683     0.71191     1.34969
O      0.40288    -0.69436     1.67452
H      0.39354    -1.45909     1.08005
O     -0.36518     2.25403     0.79994
H      0.48119     2.28429     0.31569
O     -1.32921     2.38552    -0.23659
H     -1.19600     1.56856    -0.74214
