 32
-1213.3112765643057
O      2.12542    -1.07789     1.20983
H      1.38292    -1.27636     0.59924
O      2.29427     0.33401     1.07587
H      2.55666     0.43184     0.13708
O     -1.05960    -2.06775     0.35566
H     -0.81293    -1.81494     1.28331
O      0.05463    -1.52600    -0.35955
H     -0.30807    -0.64001    -0.59141
O     -0.83414     0.90804    -1.00156
H     -0.09062     1.53229    -1.12471
O     -1.43324     0.93124    -2.30131
H     -2.31035     0.59233    -2.06259
O     -0.74455     1.46597     2.13285
H     -1.38287     1.37375     1.41091
O      0.36338     2.09739     1.49473
H      1.04527     1.39868     1.55033
O      1.51066     2.14885    -1.26608
H      1.82266     2.59163    -0.46367
O      2.49106     1.11851    -1.44640
H      2.01526     0.54341    -2.07728
O      0.53831    -1.73936    -3.20449
H      0.57984    -2.09891    -2.30792
O      0.82811    -0.36143    -2.96376
H     -0.06358     0.03664    -2.92708
O     -0.42306    -1.09781     2.71687
H     -0.50428    -0.12126     2.66609
O      0.74339    -1.24380     3.52312
H      1.43047    -1.22640     2.83469
O     -3.22517     0.47308     0.55668
H     -4.08592     0.31745     0.96266
O     -3.19719    -0.51155    -0.47560
H     -2.54777    -1.15485    -0.12841
