 32
-1213.3038401597044
O      1.18429    -3.94336    -0.15510
H      1.46765    -3.74210     0.74497
O      0.88553    -2.63880    -0.64226
H      0.00619    -2.47366    -0.23107
O     -1.61825    -1.41369     1.53554
H     -0.69196    -1.44483     1.84420
O     -1.50087    -1.92822     0.20577
H     -1.57345    -1.13447    -0.34639
O     -0.84498    -1.06806    -2.43687
H     -0.22793    -1.79893    -2.29692
O     -0.18616    -0.06839    -1.66346
H     -0.85917     0.65500    -1.63808
O     -2.13695     3.13700    -1.43080
H     -1.18800     3.31727    -1.42211
O     -2.13428     1.71631    -1.24731
H     -2.30611     1.62956    -0.28553
O      0.59944     3.72072    -1.28004
H      0.83462     4.65279    -1.29058
O      0.99445     3.34606     0.03305
H      1.60344     2.61399    -0.16005
O      2.54920    -0.45956     0.21587
H      2.37417    -1.16523    -0.42817
O      2.02304     0.69639    -0.42652
H      1.19996     0.36287    -0.84545
O      1.63829    -2.47904     2.64936
H      1.91644    -2.26162     3.54370
O      0.97594    -1.28234     2.26276
H      1.58898    -0.90971     1.59169
O     -1.97390     1.22536     1.37808
H     -2.11167     0.27457     1.55746
O     -0.55089     1.18424     1.17210
H     -0.34423     2.11399     1.00349
