 24
-909.9780969682101
O     -3.43444     0.86912    -1.10599
H     -2.51800     1.21002    -1.09442
O     -3.18130    -0.52385    -1.32022
H     -4.01514    -0.80783    -1.70778
O      1.06169     0.12253    -1.44466
H      2.03230     0.03129    -1.36725
O      0.66412    -1.25216    -1.33161
H      0.12657    -1.23318    -0.52188
O      3.75608    -0.93348     0.30469
H      2.97981    -0.48433     0.66430
O      3.59211    -0.64683    -1.08884
H      3.59892    -1.52933    -1.47096
O     -0.84932    -1.29616     0.93242
H     -0.25037    -0.86463     1.57456
O     -2.02240    -0.49589     1.07639
H     -2.50402    -0.67355     0.24014
O      1.59590     0.78052     1.46450
H      0.81887     1.24975     1.08220
O      0.95325    -0.04302     2.44017
H      0.90468     0.53010     3.21121
O     -0.90951     1.72864    -0.73978
H     -0.18559     1.11736    -0.99849
O     -0.75176     1.78768     0.67980
H     -1.32928     1.04130     0.93563
