 28
-1061.6367582517803
O     -0.91202    -1.73705     0.81532
H     -0.48782    -1.76413    -0.05753
O     -2.29800    -1.78295     0.48795
H     -2.57850    -0.87928     0.69094
O      2.78196    -0.63646     1.58144
H      2.66576    -1.57392     1.39651
O      1.57040    -0.10049     1.05368
H      1.07480     0.18479     1.85015
O     -0.40791     2.11938    -1.34434
H     -0.00498     1.71493    -2.12565
O     -0.78218     0.94321    -0.62714
H      0.83275    -0.37441    -2.68190
O      2.34565    -2.06195    -1.44317
H      2.80516    -1.48848    -2.07206
O      1.14363    -1.31847    -1.24500
H      1.40360    -0.75521    -0.48385
O     -3.22328     1.21171     0.43727
H     -2.35614     1.25333    -0.01932
O     -2.92866     1.86829     1.67376
H     -3.24818     2.76381     1.52185
O      2.36618     0.47902    -3.30704
H      2.57333     0.40764    -4.24353
O      0.93564     0.33491    -3.34635
H     -0.14695     0.92337     0.11344
O     -0.50903     0.92695     2.29157
H     -1.41099     1.28774     2.16377
O     -0.77275    -0.26116     3.04800
H     -0.87344    -0.90381     2.31905
