 24
-909.9716065640893
O     -1.36477    -2.69238    -0.16288
H     -1.71242    -1.93832     0.35033
O     -2.27169    -2.68523    -1.27056
H     -2.63091    -3.57577    -1.21654
O     -0.04191     0.40386    -1.91259
H      0.30735    -0.23503    -1.25692
O     -0.14468     1.58435    -1.10592
H     -1.01848     1.43955    -0.69652
O      1.10934    -1.23013    -0.16453
H      0.61059    -2.03414    -0.38297
O      2.37277    -1.43820    -0.80241
H      2.62629    -0.51257    -0.92999
O     -2.13858    -0.32284     0.89597
H     -1.32039     0.11083     1.21668
O     -2.45740     0.51288    -0.22387
H     -2.55306    -0.13931    -0.92924
O      0.05334     0.90985     1.73072
H      0.95548     1.06431     1.36542
O      0.23073     1.17976     3.11775
H     -0.33081     1.95332     3.20458
O      2.43081     1.61709     0.78138
H      2.89417     2.44398     0.95052
O      2.49537     1.50040    -0.64237
H      1.55512     1.65335    -0.88179
