 40
-1516.6459806316134
O     -1.15626     0.73899    -2.01814
H     -1.72394     1.26399    -1.41866
O      0.12258     1.29800    -1.71201
H      0.73698     0.56354    -1.93839
O     -0.76927     2.15315     2.89236
H     -0.10013     1.65254     2.40440
O     -1.97611     1.65663     2.32760
H     -1.90022     0.68771     2.45492
O      1.75092    -1.95596     1.26869
H      1.53912    -0.99561     1.26359
O      0.67326    -2.51591     2.03328
H      0.43190    -3.23628     1.43207
O     -1.39833    -0.47153     0.62589
H     -1.51166    -1.28951     0.09504
O     -1.48763    -0.93092     1.98291
H     -0.61753    -1.37390     2.08911
O     -2.54677     2.27681    -0.21871
H     -2.34981     2.04294     0.71953
O     -2.04309     3.60738    -0.28659
H     -2.82710     4.14584    -0.14396
O      2.92056    -1.03658    -1.45731
H      2.95794    -0.29319    -0.83587
O      1.71994    -0.71541    -2.15265
H      1.16703    -1.50256    -2.02893
O      1.05901     3.70906    -1.11384
H      0.75887     2.90061    -1.56430
O      0.60176     3.40594     0.19883
H     -0.36617     3.53706     0.12051
O      0.50091    -4.25938    -0.02727
H      0.61354    -5.21104     0.05892
O      1.61940    -3.89925    -0.83931
H      2.06814    -3.28101    -0.24102
O      1.12968     0.61450     1.03586
H      0.40679     0.64191     0.37850
O      2.17933     1.30132     0.36235
H      1.78056     2.20175     0.29287
O     -0.88149    -1.91785    -2.24692
H     -1.14509    -0.97959    -2.15888
O     -1.52388    -2.50840    -1.11347
H     -0.99454    -3.31289    -1.02162
