 32
-1213.299988318574
O      0.46256    -3.20210     0.16786
H     -0.48289    -2.98432     0.17980
O      0.78075    -3.04066     1.55202
H      1.55530    -2.46040     1.50511
O      0.77810    -1.35882    -1.83098
H      0.82054    -2.01896    -1.11478
O      1.91728    -0.54100    -1.53505
H      1.64962     0.29441    -1.94674
O     -2.65489    -0.29351     0.13600
H     -2.66408     0.07668     1.04217
O     -1.62131    -1.27168     0.21112
H     -0.83676    -0.68819     0.30408
O     -2.64955     0.97673     2.52774
H     -3.36644     1.06305     3.16204
O     -1.66033     0.29825     3.31257
H     -0.86111     0.59906     2.84951
O      0.58996     2.86057    -2.99296
H      0.42935     3.28892    -3.84129
O      0.67996     1.48494    -3.37673
H     -0.19149     1.15419    -3.09824
O      3.00032    -1.49421     1.44177
H      3.84885    -1.76738     1.08118
O      2.82918    -0.18875     0.90764
H      2.47027    -0.37658     0.00544
O      0.18177     0.61885     0.47817
H     -0.25723     1.42216     0.11133
O      0.54862     1.00169     1.81683
H      1.46208     0.67066     1.79641
O     -1.21977     2.42241    -0.89688
H     -0.66241     2.87426    -1.55068
O     -1.66569     1.32222    -1.71397
H     -2.08318     0.71956    -1.04655
