 24
-909.9805094862566
O     -1.71425     0.38176     0.94077
H     -2.29398     0.41311     0.15323
O     -1.11553    -0.91410     0.81480
H     -0.45434    -0.87754     1.53649
O      0.34270    -0.96013    -1.42062
H     -0.30558    -1.05928    -0.69394
O     -0.28824     0.02688    -2.24468
H     -0.08844     0.84292    -1.74917
O      2.61990    -0.85605     0.03933
H      1.90088    -0.82226    -0.62144
O      2.93073     0.52340     0.23473
H      2.44370     0.72435     1.04609
O     -3.15703     0.71083    -1.29109
H     -4.02791     1.00306    -1.57404
O     -2.95767    -0.45393    -2.10241
H     -2.02073    -0.32089    -2.34088
O      0.78554    -0.59147     2.61998
H      0.79028    -0.65108     3.58152
O      1.39758    -1.82685     2.23853
H      1.92560    -1.52018     1.47427
O      0.65809     1.94328    -0.65056
H      1.58510     1.68774    -0.74475
O      0.52984     1.79580     0.77347
H     -0.33485     1.34458     0.85122
