 24
-909.9716075930696
O     -0.53195     0.58620     2.24874
H     -0.08574    -0.19119     1.87988
O     -1.84447     0.08330     2.49676
H     -2.37740     0.67974     1.95263
O      3.09101    -1.95809    -1.81591
H      3.05504    -1.36218    -1.05573
O      1.73668    -2.41521    -1.83083
H      1.82857    -3.37088    -1.75607
O      1.92885    -0.59454     1.38088
H      2.40594    -0.23866     2.13509
O      2.53400     0.11698     0.29472
H      1.92099     0.87929     0.20515
O     -2.79957     1.78919     0.21430
H     -1.88738     1.89633    -0.13493
O     -3.28507     0.71688    -0.59956
H     -3.75874     1.18737    -1.29349
O     -1.22742    -1.12950    -1.61705
H     -1.92679    -0.67154    -1.13114
O     -0.12714    -0.89345    -0.73115
H      0.58589    -1.43933    -1.13988
O     -0.27175     1.70611    -0.72560
H     -0.13982     0.73199    -0.82074
O      0.61166     2.03829     0.34966
H      0.11734     1.70139     1.12153
