 24
-909.9799776871362
O     -2.30144    -0.36432     1.00210
H     -1.37484    -0.62757     1.17615
O     -2.14895     1.04197     0.78844
H     -2.11049     1.06035    -0.19001
O      0.45085    -0.75306    -2.11187
H      1.24534    -0.39074    -1.67975
O      0.32545    -2.01141    -1.43520
H     -0.63868    -2.09093    -1.44537
O      2.39234     0.51011    -0.77669
H      1.88604     1.13738    -0.22840
O      3.23826    -0.10495     0.18815
H      4.07522    -0.08532    -0.28237
O     -1.94497     0.31041    -1.74015
H     -1.00504     0.14315    -1.94873
O     -2.36752    -1.05525    -1.55177
H     -2.56062    -1.01628    -0.59612
O      1.10914    -0.84996     2.33652
H      1.12561     0.11426     2.26052
O      0.20168    -1.17690     1.28707
H      0.76731    -1.51955     0.57718
O      0.66079     2.22647     0.40622
H      0.72113     3.18344     0.46747
O      0.22390     1.87371     1.71695
H     -0.69846     1.59852     1.52217
