 32
-1213.3154145354856
O      2.52799     0.02925     1.79192
H      2.50340    -0.60096     1.03850
O      2.44845     1.26008     1.06953
H      1.48276     1.40280     1.01501
O     -0.49843    -1.77623    -0.36856
H     -0.10394    -2.07866     0.46900
O     -0.34239    -2.89283    -1.23157
H      0.13466    -2.45878    -1.95269
O     -1.89459     1.08821    -2.36669
H     -2.20641     1.72819    -3.01388
O     -2.24398     1.72137    -1.14030
H     -2.74439     0.99095    -0.71833
O     -0.15229     1.69623     0.64017
H     -0.80208     1.80607    -0.08075
O     -0.98041     1.81140     1.80339
H     -0.48852     1.22770     2.41454
O      0.41492    -0.27480    -2.58847
H     -0.45969     0.12641    -2.46593
O      1.15853     0.85222    -3.08168
H      2.03208     0.61775    -2.74019
O      2.24774    -1.02980    -0.54605
H      1.34700    -0.76366    -0.80282
O      3.02554     0.00548    -1.15801
H      2.96246     0.69099    -0.45910
O     -0.31891    -1.36447     2.42799
H     -1.24706    -1.09978     2.29325
O      0.19154    -0.21258     3.11258
H      1.12364    -0.21556     2.81967
O     -2.69492    -0.29219     1.56644
H     -2.34972     0.61777     1.59964
O     -2.78772    -0.50857     0.15883
H     -1.98019    -1.02546    -0.03903
