 24
-909.9750437628676
O     -0.99749    -0.77314     2.17742
H     -0.10696    -0.39398     2.24761
O     -1.43710    -0.26194     0.91901
H     -1.19776    -0.96353     0.27844
O     -0.37541    -1.47129    -2.14055
H     -0.66303    -0.53813    -2.20502
O     -1.28760    -1.95751    -1.14810
H     -2.08493    -2.14036    -1.65678
O      2.00999    -0.57182     2.28796
H      1.96428    -1.15297     1.51351
O      2.87338     0.46124     1.80756
H      2.25862     1.20697     1.76443
O     -1.52546     0.93513    -1.87362
H     -1.19351     1.60516    -1.24084
O     -2.88125     0.78169    -1.45971
H     -2.75499     0.43425    -0.56298
O      2.17280     0.06189    -0.93159
H      2.86135     0.23181    -0.27644
O      1.82102    -1.27711    -0.53047
H      1.25225    -1.54410    -1.26988
O      0.57151     1.88039     0.64415
H      0.80178     1.28249    -0.08411
O     -0.73866     2.32489     0.28281
H     -1.26836     1.80041     0.89845
