 36
-1364.970812481216
O      3.66367     0.30220     1.03149
H      3.80769     0.16279     0.08240
O      2.67949    -0.68010     1.33984
H      1.97990    -0.46205     0.70275
O     -2.01152     1.39762    -0.66948
H     -2.19752     0.44945    -0.50080
O     -1.54895     1.84095     0.62012
H     -0.57927     1.65614     0.58933
O      3.11391    -0.56320    -1.78172
H      2.28219    -1.00868    -1.52484
O      2.75845     0.02246    -3.02994
H      3.18277    -0.57015    -3.65992
O      1.03135     1.39437     0.18551
H      1.08303     1.69599    -0.74188
O      1.85129     2.32548     0.90888
H      2.58378     1.71924     1.12150
O     -2.45120    -2.07862    -1.22194
H     -1.76629    -2.68858    -0.91262
O     -2.48072    -1.17169    -0.11499
H     -3.35510    -1.31966     0.27530
O     -2.91934     0.36563     2.38503
H     -2.52704     1.03696     1.78066
O     -4.20764     0.17148     1.80126
H     -4.77682     0.57943     2.46281
O     -0.01190     1.75423    -2.39190
H     -0.84774     1.72366    -1.87516
O      0.07239     0.39926    -2.85179
H      1.01934     0.34939    -3.06342
O     -0.42592    -1.11845     2.23946
H     -1.36757    -0.91181     2.36962
O      0.17385     0.06926     2.77071
H      1.11412    -0.14072     2.67917
O      0.81958    -1.51125    -0.86955
H      0.12550    -0.98926    -1.31126
O      0.10275    -2.44119    -0.07351
H     -0.03748    -1.93271     0.75323
