 32
-1213.3130865775788
O      2.11460     1.57620     1.15002
H      1.70450     0.71155     1.35674
O      1.35837     1.98691     0.01116
H      1.73317     1.45001    -0.71113
O      0.78600    -2.23654    -0.44641
H      1.44116    -1.82287    -1.04822
O     -0.33267    -2.48210    -1.30307
H     -1.04604    -2.47427    -0.64167
O     -3.02808    -1.23025     0.46548
H     -3.81529    -1.57130     0.90292
O     -2.01607    -2.13711     0.89078
H     -1.51381    -1.55877     1.50846
O     -1.26442     1.64986     0.15804
H     -0.32609     1.91853     0.11724
O     -1.15926     0.40082    -0.53794
H     -1.92384    -0.09988    -0.19550
O     -0.48359    -0.39967     2.17849
H     -0.31059     0.44462     2.65617
O      0.85284    -0.71003     1.75524
H      0.70083    -1.22650     0.93863
O      2.70916    -0.84732    -1.69247
H      3.42071    -0.97726    -2.32536
O      2.17025     0.40760    -2.10445
H      1.41511     0.10534    -2.67602
O      0.16429    -0.75464    -3.32629
H     -0.19026    -1.44814    -2.73768
O     -0.78040     0.30178    -3.18324
H     -0.88066     0.38182    -2.21433
O      0.09788     1.96371     3.20553
H      0.81146     2.34465     2.66637
O     -1.02805     2.79526     2.93787
H     -1.38841     2.38441     2.13582
