 32
-1213.3135443636088
O     -0.92153    -2.29073     0.69024
H     -0.62078    -1.55935     1.26896
O      0.33429    -2.81847     0.27754
H      0.40721    -3.62298     0.80014
O      1.68167    -1.23430    -1.38452
H      1.24070    -1.87120    -0.78962
O      0.85344    -0.09631    -1.18783
H     -0.03643    -0.43791    -1.44279
O     -2.53428    -0.04098    -1.61902
H     -2.03120     0.74769    -1.90561
O     -1.53113    -1.05179    -1.77969
H     -1.73063    -1.64433    -1.03753
O      0.85551     1.87401     0.59942
H      0.88042     1.15891    -0.07246
O     -0.32319     2.58554     0.23616
H     -1.01489     2.05519     0.67552
O     -0.92244     2.00254    -2.29477
H     -0.61181     2.43346    -1.46883
O      0.22565     2.07685    -3.13411
H      0.64693     1.22503    -2.96352
O      2.83414    -1.18056     1.49022
H      3.64378    -1.34257     1.98352
O      3.24252    -0.17652     0.56218
H      2.93682    -0.57179    -0.27181
O      0.34198    -0.54814     2.24055
H      1.28425    -0.73742     2.04564
O      0.40380     0.69017     2.93507
H      0.65637     1.28811     2.19991
O     -2.02210     0.89542     1.38635
H     -1.49542     0.48825     2.09101
O     -2.95687    -0.13251     1.04558
H     -2.98779    -0.01670     0.07915
