 32
-1213.3181260090876
O      3.22456     0.08025     1.21284
H      3.06555    -0.41527     0.38567
O      2.76496     1.38742     0.86787
H      1.94744     1.45744     1.39526
O     -1.81408    -1.79352     0.06074
H     -1.09348    -1.77133     0.71173
O     -1.09690    -1.82473    -1.17155
H     -1.50086    -1.09989    -1.68994
O     -1.73406     0.32432    -2.66943
H     -0.81592     0.57093    -2.84526
O     -2.11086     1.42626    -1.83671
H     -2.95796     1.12230    -1.47398
O     -0.42578     1.50609     0.68876
H     -1.36439     1.52222     0.94718
O      0.27334     1.35265     1.92657
H      0.23662     0.38078     2.07664
O      0.76043     0.62700    -1.49169
H      0.23897     0.97045    -0.72691
O      1.76720     1.61019    -1.65185
H      2.21710     1.57694    -0.78365
O      2.40491    -1.28818    -0.98328
H      1.84923    -0.58164    -1.38774
O      1.42951    -2.16947    -0.40442
H      0.63833    -2.07379    -0.97171
O      1.54412    -1.15050     2.91383
H      2.25165    -0.67006     2.43999
O      0.55231    -1.24617     1.90615
H      1.05378    -1.63506     1.15263
O     -3.08212     0.47806     0.69118
H     -2.70720    -0.38665     0.43687
O     -4.12889     0.58794    -0.26761
H     -4.73421     1.17722     0.19091
