 32
-1213.3086979026739
O      2.20503    -0.98619    -1.70099
H      1.29564    -1.20087    -1.99204
O      2.20666    -1.61753    -0.41907
H      2.01303    -0.86929     0.18625
O      0.74525    -0.54438     2.41270
H      0.53279    -1.39274     1.98253
O      1.42909     0.15568     1.37432
H      0.78339     0.84657     1.12139
O     -0.40711    -1.25951    -2.05137
H     -0.78600    -1.66135    -1.23782
O     -0.85567     0.09670    -1.96582
H     -0.18209     0.56067    -2.50559
O      0.71215     2.55777    -0.21887
H      1.26053     2.66006    -1.00971
O     -0.27887     3.58042    -0.42144
H     -1.00420     3.18409     0.07588
O      0.00951    -2.77233     1.01125
H      0.71535    -2.72864     0.34736
O     -1.12811    -2.35343     0.25611
H     -1.47103    -1.63781     0.81824
O      1.07293     1.33697    -3.34900
H      1.46613     1.25034    -4.22323
O      2.19936     1.59903    -2.51323
H      2.33963     0.71222    -2.12159
O     -1.31244     0.46366     0.61952
H     -1.20448     0.53259    -0.35055
O     -2.18827     1.54689     0.94433
H     -2.57745     1.16068     1.74071
O     -2.07595    -0.06579     3.27799
H     -1.10820    -0.00570     3.23901
O     -2.27684    -1.39152     2.79597
H     -2.61715    -1.85173     3.57419
