 32
-1213.3067003944725
O     -2.67947    -1.60843    -0.98979
H     -3.19558    -0.87185    -0.62628
O     -1.39656    -0.96993    -1.04121
H     -0.95659    -1.43145    -1.77343
O      1.16966     0.75197    -1.63488
H      2.01190     1.01818    -1.22169
O      1.52155     0.41907    -2.97916
H      1.63849    -0.53527    -2.89138
O     -0.06896    -1.49252     1.15106
H     -0.69762    -1.31786     0.40761
O      1.16190    -1.64870     0.43082
H      1.52866    -0.74391     0.45467
O     -0.08050     2.56894     0.77706
H     -0.20771     2.01853     1.57051
O     -0.82269     1.79562    -0.16390
H     -0.12895     1.38240    -0.71362
O      2.23027     0.76050     0.91945
H      1.98669     0.88848     1.85755
O      2.53567     2.07610     0.48752
H      1.64775     2.48417     0.52211
O      0.62569    -2.68861    -1.96787
H      0.90876    -2.47391    -1.05551
O      1.84694    -2.48013    -2.68338
H      1.64402    -2.94873    -3.49685
O     -0.16003     0.64247     2.69712
H     -0.09683    -0.20533     2.18377
O      1.11794     0.72877     3.31183
H      0.98042     0.29976     4.16159
O     -2.86948     0.83480     1.25200
H     -2.21242     1.23032     0.64408
O     -3.87919     0.46758     0.30346
H     -4.65390     0.42145     0.86906
