 40
-1516.6481666637237
O      2.33411     1.51844    -0.07228
H      2.05413     1.35518     0.85409
O      1.39019     2.50386    -0.49575
H      1.06920     2.11464    -1.33535
O      0.34505    -3.15826    -3.40393
H      1.20598    -2.74114    -3.23973
O     -0.39515    -2.02224    -3.85371
H     -0.62405    -2.27346    -4.75618
O     -0.37656     3.05315     2.33554
H     -1.20140     2.75327     2.76962
O     -0.76412     2.99712     0.95785
H      0.09155     2.82578     0.50428
O      1.75496    -1.12274    -2.06609
H      1.53634    -1.43545    -1.15018
O      3.10261    -0.70394    -1.97061
H      3.00944     0.05553    -1.37218
O     -1.31090     0.20462     0.47221
H     -1.07189     0.38669    -0.46172
O     -2.47639     1.00812     0.64750
H     -2.03747     1.88369     0.69863
O      0.65055     0.03898     2.73729
H     -0.04077     0.12791     2.06279
O      1.47916     1.16346     2.46386
H      0.86964     1.92229     2.60839
O     -0.81456     0.44102    -2.11699
H     -0.84713    -0.37260    -2.64891
O      0.41116     1.04301    -2.54764
H      1.02060     0.26464    -2.53610
O     -1.89397    -2.30760    -1.02480
H     -1.69378    -1.74651    -0.26518
O     -1.13131    -3.48107    -0.74897
H     -0.68829    -3.59628    -1.59955
O      1.87447    -2.07287     1.43111
H      1.50901    -1.38499     2.01377
O      0.96834    -1.97790     0.32561
H      0.46033    -2.80595     0.38058
O     -2.55615     0.73903     3.39010
H     -2.80594     0.73054     2.45082
O     -2.53170     2.14898     3.62750
H     -2.73987     2.18773     4.56482
