 32
-1213.3128976861767
O      3.59155     0.73880    -1.71350
H      3.26637     0.28037    -0.92554
O      3.15784    -0.19026    -2.71343
H      3.47209     0.24174    -3.51090
O     -0.98198     0.17252     2.86062
H     -0.88482     0.90135     2.21646
O     -2.07925    -0.54944     2.29389
H     -1.58341    -1.21823     1.78057
O     -2.29631    -0.96709    -2.73240
H     -1.34666    -0.91752    -2.55640
O     -2.72745    -1.51839    -1.48804
H     -3.52623    -1.99080    -1.73713
O     -0.66795     2.02242     0.96431
H     -1.39058     1.75500     0.33893
O      0.46627     2.00826     0.09452
H      1.20184     1.86235     0.71593
O      2.80071    -0.12918     0.77400
H      2.22025    -0.73059     1.29169
O      2.60623     1.09346     1.48411
H      3.49593     1.45525     1.47542
O      0.44959    -0.44282    -0.92291
H      0.35894     0.52236    -0.74268
O      0.49228    -0.49701    -2.35222
H      1.45756    -0.42287    -2.47344
O     -0.09602    -1.90019     1.21768
H      0.11565    -1.38799     0.41141
O      0.92409    -1.47904     2.12763
H      0.40306    -0.85588     2.67596
O     -3.47920     1.00594     0.57790
H     -3.05065     0.44302     1.25134
O     -2.52379     0.92854    -0.47824
H     -2.62848     0.01265    -0.82054
