 32
-1213.3082695528333
O      1.37085    -2.67892    -0.26464
H      1.76201    -3.50772     0.02477
O      1.85746    -1.77329     0.71742
H      1.09872    -1.69750     1.35114
O     -1.36631    -2.42184    -0.25596
H     -0.39943    -2.50793    -0.24918
O     -1.47624    -1.01324    -0.06520
H     -1.22256    -0.63795    -0.93481
O      2.45132     0.32663    -1.67472
H      1.69691    -0.25741    -1.83839
O      2.30186     0.65043    -0.29434
H      2.39935    -0.22429     0.13182
O      0.39399     3.36723    -1.56144
H     -0.13099     2.84279    -0.93387
O      0.68696     2.38572    -2.56355
H      1.58317     2.09704    -2.32562
O     -0.80652     1.76884     0.28092
H     -1.55454     1.56920     0.86495
O      0.29219     1.63481     1.17768
H      1.00827     1.38712     0.55582
O      0.01696    -0.63166    -3.24802
H     -0.52062    -0.63129    -4.04551
O     -0.77826     0.18755    -2.38721
H     -0.32279     1.06432    -2.46502
O     -0.06697    -1.36284     2.44629
H     -1.00281    -1.12333     2.61734
O      0.65072    -0.29918     3.06770
H      0.51821     0.41768     2.41981
O     -2.59755    -0.50221     2.86763
H     -2.89910     0.08264     3.56857
O     -2.89569     0.26444     1.69609
H     -2.50478    -0.33931     1.02383
