 24
-909.9731444487956
O     -1.82126     1.18444    -0.67227
H     -1.98760     0.50968    -1.34845
O     -2.29079     0.53644     0.51314
H     -1.46909     0.44746     1.01785
O     -1.79065    -1.30181    -2.12069
H     -1.46452    -1.74289    -1.31807
O     -0.56374    -1.14437    -2.84092
H     -0.67369    -1.78369    -3.55227
O      2.07422     0.95679    -0.76286
H      1.49600     1.65374    -0.40570
O      2.27907     0.16708     0.41573
H      2.25769    -0.72661     0.04451
O     -0.09481    -2.22897    -0.01396
H      0.18780    -1.95790     0.87770
O      1.13606    -2.14920    -0.75198
H      0.84377    -1.61402    -1.50261
O      0.18809    -0.05173     2.02039
H      0.95668     0.20174     1.46473
O      0.60314    -1.35458     2.42786
H      0.16912    -1.43286     3.28282
O     -0.03544     2.91073     1.47207
H      0.12205     3.85282     1.57628
O      0.21045     2.76874     0.07682
H     -0.60754     2.30874    -0.20167
