 32
-1213.308637597073
O      1.58609    -1.42233    -1.07916
H      0.62393    -1.24792    -1.12419
O      1.79752    -1.37314     0.33007
H      1.90444    -0.40989     0.48032
O     -1.58866    -2.17331    -1.53934
H     -1.15794    -2.68909    -0.83881
O     -1.03464    -0.89019    -1.28484
H     -1.74009    -0.40203    -0.81587
O     -0.10879    -3.65271     1.96044
H     -0.53532    -4.51329     1.94129
O      0.13847    -3.45519     0.56092
H      0.87372    -2.80246     0.57957
O     -0.34470     2.98795    -1.32045
H      0.35052     2.41952    -1.71124
O      0.19328     3.19071    -0.00505
H     -0.59961     2.96971     0.52699
O      1.69429     1.48484     2.18573
H      2.54410     1.85363     2.44658
O      1.91135     1.30606     0.78321
H      1.34123     2.02483     0.40540
O      1.39277     1.17564    -2.17699
H      1.95937     0.41009    -1.98052
O      0.56183     0.72237    -3.24394
H     -0.16601     0.31153    -2.75222
O     -1.34882    -1.01541     2.64311
H     -1.11304    -1.90112     2.33618
O     -0.67534    -0.22707     1.65903
H      0.13585     0.06548     2.10723
O     -1.97551     1.92521     0.80938
H     -1.60429     1.10256     1.18923
O     -2.34890     1.46335    -0.50017
H     -1.76690     2.03537    -1.03508
