 16
-606.6354033090882
O     -2.01854    -0.29076     1.01395
H     -2.76510     0.21030     0.66957
O     -1.58762     0.51021     2.11737
H     -0.83618     0.99301     1.72246
O      0.74975     1.51881     1.15636
H      0.77024     1.36972     0.18563
O      1.68579     0.50691     1.55651
H      1.30602     0.20849     2.38849
O      0.99856     0.73714    -1.37709
H      0.53315    -0.12004    -1.41419
O      2.36276     0.35167    -1.56721
H      2.67282     0.31182    -0.65409
O     -0.52462    -1.49857    -0.93520
H     -1.03929    -1.18044    -0.17163
O     -1.56328    -1.74365    -1.88526
H     -1.39125    -2.66464    -2.10291
