 28
-1061.6412146556447
O      0.16708     0.13247    -2.36102
H     -0.13719     0.18320    -3.27306
O      0.69012    -1.19221    -2.26120
H     -0.06778    -1.65051    -1.84527
O      0.62206    -0.64359     0.82757
H      0.32996    -0.03442     1.53769
O      1.74269    -1.28984     1.43177
H      2.44938    -0.82727     0.95185
O     -0.43711     0.79521     2.79836
H     -0.64862     0.57152     3.71065
O     -1.40680     1.78164     2.46108
H      1.09745     1.41066    -0.97532
O     -1.60806    -1.92666     0.27563
H     -0.70162    -1.57904     0.43271
O     -1.73529    -1.85093    -1.14591
H     -2.11423    -0.95348    -1.23076
O     -2.90749     0.33137     0.67968
H     -2.59705    -0.59846     0.74787
O     -2.47485     0.61837    -0.65418
H     -1.65131     1.12018    -0.49644
O     -0.38718     2.17610    -0.17081
H     -0.46523     2.52965     0.72937
O      1.03126     2.15863    -0.36515
H     -2.03070     1.26489     1.91504
O      3.55054    -0.95332    -1.27470
H      2.60837    -1.06670    -1.46737
O      3.46042     0.01192    -0.22793
H      4.07595     0.69466    -0.51585
