 16
-606.6373271716926
O     -2.14203    -0.62584     2.03765
H     -3.00238    -0.28027     2.29385
O     -1.84689     0.19288     0.90235
H     -1.08643     0.70495     1.21699
O      0.64733     1.69809     1.01084
H      0.89616     1.49154     0.08365
O      1.54232     0.79780     1.68859
H      2.25606     1.39452     1.93048
O      1.43920     0.53802    -1.24559
H      0.74608    -0.12382    -1.41917
O      2.47414    -0.27631    -0.68489
H      2.21712    -0.24774     0.24579
O     -0.70706    -1.16035    -1.37740
H     -1.34358    -0.81379    -0.73218
O     -1.51335    -1.29290    -2.55165
H     -1.51091    -2.24817    -2.66449
