 20
-758.3075745908201
O     -1.06685    -1.92902     0.14546
H     -1.76309    -2.58652     0.23662
O     -0.51291    -1.90372     1.46516
H      0.38156    -1.56207     1.26127
O      1.72385    -0.63421     0.72623
H      1.82390    -0.78191    -0.22921
O      1.40527     0.76910     0.69857
H      0.70837     0.81916     1.38880
O     -1.24826     0.55154    -0.81826
H     -1.16583    -0.38862    -0.56124
O     -1.51912     0.44284    -2.21372
H     -0.66212     0.70755    -2.57242
O      1.87774    -0.41611    -1.94984
H      2.72310    -0.35422    -2.40798
O      1.34525     0.89708    -2.16167
H      1.28454     1.19920    -1.24158
O     -0.64051     0.80850     2.39068
H     -0.99104    -0.09453     2.37694
O     -1.66254     1.55989     1.72833
H     -1.47541     1.37823     0.79005
