 36
-1364.9763776849597
O     -1.14495     0.71393     0.28720
H     -0.90659     1.62986     0.51086
O     -2.17983     0.83963    -0.68367
H     -1.68773     0.62329    -1.49584
O     -1.86906    -1.35831     2.54471
H     -2.15368    -2.09550     1.97256
O     -0.57422    -1.13931     2.01656
H     -0.80090    -0.57959     1.24264
O      0.88230     4.15940    -0.15468
H      0.91592     3.39204    -0.74836
O      2.05985     3.92858     0.61913
H      2.33372     4.82784     0.82266
O      1.68022    -1.20250    -0.50871
H      1.06341    -1.16051    -1.26836
O      2.10189     0.15635    -0.36133
H      1.85022     0.34384     0.56389
O      0.47327     2.22549     1.95180
H      1.13210     2.88174     1.66532
O      1.28143     1.05349     2.09914
H      0.65048     0.45949     2.53362
O     -2.18251    -2.18006    -0.71958
H     -2.49124    -1.33388    -0.35969
O     -2.14495    -3.02696     0.43715
H     -1.21290    -3.35008     0.42525
O      0.76921     1.95916    -1.74679
H      1.31751     1.26413    -1.30145
O      1.10623     1.74861    -3.11045
H      0.93231     2.62356    -3.46471
O      0.44497    -3.56436     0.61391
H      1.05584    -2.83399     0.41623
O      0.41742    -3.58901     2.04273
H      0.06033    -2.69636     2.23442
O     -0.85787    -0.08462    -2.87840
H     -0.08297     0.45817    -3.10096
O     -0.24681    -1.28368    -2.39769
H     -0.99052    -1.69298    -1.91393
