 28
-1061.645509105344
O     -0.27539    -0.84265    -2.76314
H      0.48995    -0.23571    -2.72148
O      0.36033    -2.05994    -2.34865
H      0.19465    -2.03515    -1.38518
O      0.12428     0.39746     2.17725
H     -0.83474     0.59057     2.25439
O      0.34227    -0.56625     3.20954
H      0.88310    -1.19042     2.70651
O      0.53830     2.48425     0.19686
H      1.08083     3.27487     0.16151
O      1.53658     1.46747     0.28365
H      1.82165     0.70840    -1.16655
O     -1.70184     0.23174    -0.75958
H     -1.36716    -0.22835    -1.55910
O     -1.65075     1.59867    -1.17380
H     -0.88678     1.91854    -0.67431
O     -3.23560    -0.03819     1.54437
H     -3.00023     0.20861     0.63619
O     -2.48526     0.95287     2.25926
H     -3.09756     1.21492     2.95369
O      2.74518    -0.87909    -1.57684
H      2.29070    -1.56021    -2.09651
O      2.01162     0.27210    -2.02204
H      1.19084     0.98034     1.06989
O      0.21052    -1.74689     0.26522
H     -0.23270    -0.91155     0.49757
O      1.52552    -1.53733     0.79399
H      2.02981    -1.31852    -0.01196
