 36
-1364.980582539866
O     -2.64782     0.81050    -1.98093
H     -1.74264     1.14280    -2.12512
O     -3.11444     1.57098    -0.86235
H     -3.20953     0.84206    -0.21875
O     -3.05865    -0.80229     0.28209
H     -2.44910    -0.89355     1.03769
O     -2.29217    -1.50695    -0.71323
H     -2.40271    -0.88273    -1.45067
O      2.83098    -0.10710     1.82741
H      3.06310     0.20382     0.92915
O      2.61760    -1.49658     1.56548
H      1.64165    -1.54730     1.50652
O      0.10642    -1.76289    -2.92415
H     -0.59369    -2.38844    -3.13172
O      0.50306    -2.23838    -1.63740
H      1.46021    -2.05561    -1.65002
O     -0.00666     0.91472    -2.52822
H     -0.00883     0.01832    -2.89831
O      0.54499     0.58010    -1.25292
H      0.08468     1.20611    -0.64489
O     -0.63450     2.12953     0.53747
H     -0.33461     2.35414     1.43410
O     -1.29439     3.31136     0.09888
H     -2.11094     2.89880    -0.22690
O      0.56217     2.06919     2.96969
H      0.44828     2.42171     3.85658
O      0.68262     0.67672     3.23110
H      1.56188     0.48711     2.83861
O      3.06326    -0.06529    -0.81527
H      2.14529     0.16691    -1.06748
O      3.08590    -1.48124    -1.04114
H      3.10596    -1.77143    -0.10865
O     -0.01318    -1.71095     1.20465
H     -0.33788    -1.60595     0.28802
O     -1.00751    -1.02847     1.96409
H     -0.46655    -0.37499     2.44542
