 36
-1364.9750350492843
O      1.01275     2.23224     3.14904
H      1.74184     2.00311     2.54544
O      0.41623     0.95088     3.33107
H      0.55352     0.78821     4.26835
O      0.21030    -2.71379     1.08264
H     -0.74394    -2.54858     1.25993
O      0.75166    -1.45520     1.53120
H      1.55361    -1.39271     0.98172
O      2.84760     1.67255     1.14677
H      2.26344     1.82209     0.37192
O      3.14526     0.28829     1.02456
H      4.09627     0.30093     0.87891
O     -0.83350     0.50097     0.72949
H     -0.23603    -0.21460     1.06859
O     -1.73227     0.72784     1.80976
H     -1.07484     0.92344     2.50557
O     -3.21158    -2.16290     0.55695
H     -2.73917    -1.90406    -0.25962
O     -2.24566    -1.90720     1.57837
H     -2.33207    -0.94544     1.72970
O     -0.63953     1.02036    -4.19868
H     -1.25749     0.67896    -3.53663
O     -0.44404     2.33281    -3.66987
H     -0.32380     2.85660    -4.46653
O      0.85800     2.04952    -0.61824
H      0.11577     1.66618    -0.10554
O      0.92095     1.14326    -1.72761
H      0.52631     1.67957    -2.44758
O      1.58475    -1.35794    -1.03657
H      1.27282    -0.49437    -1.36272
O      0.59124    -2.27294    -1.50343
H      0.40738    -2.72060    -0.65465
O     -1.79858    -0.01472    -1.72750
H     -1.54927     0.15385    -0.79747
O     -1.97781    -1.43712    -1.73808
H     -1.05974    -1.76076    -1.83752
