 40
-1516.6367754832027
O      1.21733     2.52507    -1.62662
H      1.59294     1.81872    -1.07775
O     -0.12091     2.58839    -1.16452
H     -0.05494     2.98111    -0.27632
O      3.03429    -0.53847     1.96512
H      2.20190    -0.12774     2.28726
O      3.31320    -1.47756     3.00589
H      4.27303    -1.43460     3.01998
O     -2.51630     1.14165     0.43024
H     -2.09063     0.25272     0.48576
O     -2.49296     1.39103    -0.97993
H     -1.57918     1.71220    -1.12212
O     -0.83094     2.83890     2.85949
H     -1.32557     3.50313     3.34965
O     -1.14085     3.17568     1.50365
H     -1.73079     2.43430     1.24420
O      0.51205     0.65887     1.10109
H      0.26106    -0.25706     0.84618
O      0.68249     0.55318     2.51561
H      0.22467     1.36625     2.78173
O      1.79356    -3.39100     1.06260
H      2.28044    -2.94208     1.76396
O      1.00729    -2.29216     0.58562
H      1.46544    -2.02818    -0.24103
O     -1.84585    -2.26457     1.11868
H     -0.97728    -2.69188     1.13383
O     -1.58303    -1.29598     0.11045
H     -2.12643    -1.60878    -0.64810
O     -3.19072    -0.52818    -2.72887
H     -3.02055     0.14069    -2.03413
O     -3.17668    -1.73612    -1.97282
H     -4.10240    -1.99884    -1.96892
O     -0.37754    -0.46245    -2.52080
H     -1.04384    -0.56974    -3.21962
O      0.75810     0.05851    -3.21286
H      0.74817     0.98362    -2.92711
O      2.35197    -1.13067    -1.41842
H      1.86554    -0.79659    -2.19936
O      2.74675     0.10064    -0.79189
H      2.94695    -0.20505     0.10976
