 32
-1213.3151638685106
O      2.06987    -1.30898     1.76196
H      2.25108    -1.54693     0.81844
O      1.28300    -2.42563     2.17171
H      1.58902    -2.54450     3.07388
O      2.29601    -1.39982    -0.83102
H      1.71202    -1.08461    -1.55105
O      3.36345    -0.45863    -0.82349
H      2.91504     0.32516    -0.44696
O     -3.35313     0.58107    -0.16222
H     -2.89871     1.02791    -0.89298
O     -3.34839    -0.78477    -0.57620
H     -2.63951    -1.16074    -0.03145
O     -1.41990     2.52672    -1.10447
H     -1.29103     2.54689    -0.13538
O     -0.10820     2.14647    -1.53200
H     -0.31331     1.43634    -2.16022
O      1.90845     1.56333     0.12446
H      1.10369     1.74530    -0.40436
O      1.39910     1.31088     1.43291
H      1.63437     0.37365     1.57445
O      0.54287    -0.83113    -2.78217
H      0.30932    -1.50644    -3.42628
O     -0.72946    -0.51071    -2.21629
H     -0.61399    -0.81577    -1.28186
O     -0.34909    -1.06397     0.34508
H     -0.60375    -0.32445     0.94568
O     -1.05804    -2.15134     0.94546
H     -0.32183    -2.48667     1.48132
O     -1.07916     2.17738     1.52394
H     -0.11558     2.03489     1.62991
O     -1.53145     0.83588     1.73577
H     -2.33914     0.81515     1.16942
