 40
-1516.6370057910658
O      2.42966     1.93350    -0.25744
H      3.38377     2.00335    -0.16021
O      2.15718     0.69942     0.39905
H      1.48346     0.98536     1.06301
O     -0.62258    -1.07190    -0.68393
H     -0.32962    -0.23419    -1.12189
O     -2.03231    -1.04765    -0.87098
H     -2.31539    -0.59782    -0.06069
O     -2.17820     1.30915     0.84655
H     -2.22144     1.85459     0.03224
O     -3.33436     1.76927     1.54538
H     -3.34892     1.11595     2.25856
O      0.18032     1.41370     2.03123
H     -0.73142     1.36311     1.65479
O      0.10982     0.57239     3.18517
H      0.38678    -0.28010     2.79910
O     -2.19566     2.95151    -1.24652
H     -2.70711     3.75878    -1.36333
O     -2.19237     2.38176    -2.55954
H     -1.24705     2.21258    -2.66406
O      0.40002     1.13239    -1.80952
H      1.12572     1.58606    -1.33142
O      0.86503     1.13979    -3.16306
H      1.51721     0.40823    -3.14687
O      3.11461    -1.17231    -1.72681
H      2.63261    -0.53623    -1.17927
O      2.51935    -1.00589    -3.01732
H      1.87236    -1.74467    -2.97753
O      0.66186    -1.75707     1.98749
H      0.36153    -1.73604     1.05957
O      2.03835    -2.08588     1.88631
H      2.01731    -3.04469     1.97866
O      1.56191    -3.24337    -0.91827
H      2.38321    -2.73759    -1.02586
O      0.83283    -2.79417    -2.06997
H      0.13956    -2.25328    -1.64214
O     -2.46996    -0.11800     3.52753
H     -1.56959     0.26975     3.56920
O     -2.22184    -1.25999     2.69671
H     -2.11248    -1.97068     3.33794
