 24
-909.9747023986198
O     -1.74562    -1.83037     0.08968
H     -2.53800    -1.30421    -0.09643
O     -1.68054    -1.72678     1.50573
H     -1.64648    -2.64890     1.77052
O      0.00882    -0.21589    -1.12551
H     -0.50578    -0.92749    -0.71027
O     -0.48991     0.89652    -0.37165
H      0.24193     1.53436    -0.47213
O      2.43493    -0.79588    -0.11345
H      1.62176    -0.51227    -0.57399
O      2.62192     0.27860     0.81611
H      1.93768     0.03731     1.47993
O     -3.71746     0.64198    -2.07042
H     -4.42937     1.26513    -1.89864
O     -3.19269     0.45767    -0.75694
H     -2.30817     0.85702    -0.82952
O      0.77704    -0.87772     2.22797
H     -0.13223    -0.94293     1.89931
O      1.28213    -2.16900     1.86470
H      1.82481    -1.91864     1.09508
O      1.72278     2.52296    -0.38182
H      2.29983     1.82704    -0.00491
O      2.31307     2.73895    -1.65810
H      2.58156     3.65807    -1.57873
