 32
-1213.3088825311572
O      2.60434     0.60341     1.75659
H      1.98558     1.28480     2.05169
O      1.80194    -0.03179     0.76061
H      1.04485    -0.38361     1.28533
O      0.44013    -3.38552    -0.87924
H      1.19671    -2.89669    -1.23978
O      0.40080    -2.83487     0.43184
H      0.63713    -3.57471     1.00184
O     -3.38848     0.42817    -2.46113
H     -3.75730     0.55531    -3.33916
O     -2.51345     1.56052    -2.38576
H     -2.34931     1.60313    -1.41830
O     -0.84173     1.73427     3.35403
H     -0.69643     2.08362     4.23749
O      0.29564     2.24473     2.66098
H     -0.05968     2.26589     1.74548
O     -0.69463    -0.73708    -1.94516
H     -1.46218    -0.32329    -2.37073
O      0.18521     0.39627    -1.85627
H      1.05233    -0.01855    -2.04630
O      2.80030    -1.57475    -1.13928
H      2.46181    -1.02861    -0.39489
O      2.60571    -0.68195    -2.23986
H      3.47826    -0.29287    -2.35032
O     -1.84923     1.51344     0.18979
H     -1.71288     0.59554     0.51132
O     -0.49992     1.98232     0.13142
H     -0.12155     1.40577    -0.57534
O     -0.27656    -0.63297     2.26028
H     -0.63473     0.17288     2.68623
O     -1.20400    -0.85964     1.19040
H     -0.74338    -1.57209     0.69968
