 24
-909.9740348108361
O     -2.45249    -0.69191    -1.23902
H     -2.30083     0.27521    -1.09700
O     -3.65047    -0.90270    -0.49075
H     -4.27530    -1.09182    -1.19713
O     -0.59633     0.57870     1.84477
H     -0.67554    -0.29034     1.40205
O      0.81982     0.80827     1.88114
H      1.20197    -0.06249     2.08118
O      1.47494     1.80307    -0.52944
H      1.31742     1.50022     0.38796
O      1.73545     0.57269    -1.21040
H      2.44008     0.18501    -0.66122
O     -1.86572     1.79698    -0.53801
H     -1.36973     1.86721     0.29259
O     -0.99738     2.34420    -1.53954
H     -0.09796     2.11735    -1.22368
O      3.29347    -0.76971     0.51137
H      4.01967    -1.38823     0.37663
O      2.38577    -1.52811     1.30475
H      1.71535    -1.78440     0.63759
O      0.36960    -1.79004    -0.41971
H      0.33807    -0.90347    -0.81704
O     -0.73354    -1.76824     0.49150
H     -1.48785    -1.61813    -0.12392
