 36
-1364.9735821657089
O      2.39433     1.29972     1.28643
H      2.33361     0.73033     2.06956
O      1.64604     2.45678     1.68011
H      0.79080     2.29145     1.24922
O      0.96341    -1.04124     2.07836
H      0.18869    -1.35000     2.57748
O      0.24362    -0.43729     0.98560
H      0.96667    -0.08141     0.43339
O     -1.72641    -0.89155    -2.08899
H     -2.15746    -0.67237    -1.23831
O     -1.11097     0.34833    -2.43358
H     -0.15359     0.15079    -2.36502
O     -1.85489     2.41249    -0.93159
H     -1.78086     1.66545    -1.55896
O     -0.64300     2.26523    -0.19838
H      0.01531     2.64164    -0.81111
O      2.66752     2.27973    -1.49944
H      2.81736     2.04661    -0.56765
O      1.55927     3.16610    -1.39039
H      1.96127     4.03523    -1.50426
O     -2.74914    -0.65866     0.37034
H     -2.33666    -1.36248     0.89604
O     -2.74311     0.42593     1.29875
H     -2.17266     1.07366     0.85467
O      0.15662    -2.66146    -1.41660
H     -0.59293    -2.14047    -1.77740
O     -0.22166    -2.80071    -0.03997
H     -0.02510    -1.90694     0.31245
O      2.06562    -0.79206    -1.24934
H      1.55001    -1.62446    -1.34784
O      1.53560    -0.02870    -2.34314
H      2.07938     0.77358    -2.27496
O     -1.41415    -2.05606     2.73557
H     -2.16841    -2.07710     3.33650
O     -0.86883    -3.37009     2.83572
H     -0.63262    -3.50651     1.90405
