 36
-1364.979239720444
O      2.48003     0.70544     0.64627
H      2.65017    -0.12293     0.15765
O      2.67169     1.63346    -0.42526
H      2.18517     2.39499    -0.09189
O     -1.14379     0.56406     2.91518
H     -0.27632     0.19700     3.16742
O     -0.94452     0.57806     1.50182
H     -0.47674     1.43236     1.36530
O     -0.95223    -2.14388     0.20969
H     -1.75562    -1.64155    -0.02641
O     -0.59099    -2.76701    -1.02549
H      0.33971    -2.97865    -0.81492
O     -2.14093     2.01017    -1.91076
H     -2.75364     1.56960    -1.30115
O     -0.91763     1.52176    -1.35988
H     -0.72055     0.75173    -1.93114
O      0.38621     3.42219    -0.05492
H     -0.13996     2.76559    -0.57022
O      0.04090     3.03253     1.27518
H     -0.47568     3.78153     1.59109
O     -3.18236     0.52828     0.12816
H     -2.36554     0.52158     0.68686
O     -3.26647    -0.84397    -0.24748
H     -4.09364    -1.10837     0.16633
O      1.05758    -0.86671    -3.03132
H      1.06907    -1.08947    -3.96717
O     -0.33694    -0.74127    -2.77796
H     -0.50718    -1.53052    -2.21212
O      1.34270    -0.43434     2.81626
H      1.75445     0.08972     2.10104
O      1.19672    -1.70875     2.20520
H      0.30503    -1.63833     1.82159
O      2.51475    -1.50239    -0.83959
H      1.94011    -1.35851    -1.61507
O      1.95427    -2.65797    -0.22549
H      1.90405    -2.37537     0.70690
