 20
-758.3039750703837
O      0.17254     1.19884    -0.98463
H     -0.34769     1.80668    -0.43136
O     -0.86187     0.31394    -1.44820
H     -0.34711    -0.24715    -2.05887
O      1.18423    -0.35065     0.96513
H      0.99816     0.24012     0.20577
O      1.62928    -1.53907     0.31444
H      2.45380    -1.70187     0.78154
O     -1.17366     2.21917     1.19565
H     -1.63376     1.36597     1.35373
O     -0.13643     2.15623     2.17531
H     -0.41907     2.85373     2.77575
O      0.55493    -1.46437    -2.89398
H      0.74006    -1.44496    -3.83646
O      1.86238    -1.22969    -2.35506
H      1.67841    -1.38342    -1.41484
O     -1.29553    -1.02414     2.03455
H     -0.40935    -0.71037     1.79287
O     -2.13434    -0.27951     1.14456
H     -1.80940    -0.53408     0.26998
