 36
-1364.9796998951783
O      2.56713     0.64501    -1.95282
H      3.07390     0.56291    -2.76910
O      3.55291     0.45421    -0.93808
H      3.30650    -0.43264    -0.61982
O     -3.94156    -0.49550    -0.34409
H     -3.38634    -1.12217     0.14323
O     -2.95532     0.40293    -0.84635
H     -3.15926     1.23364    -0.35960
O     -1.28356    -1.33442    -1.94091
H     -1.98067    -0.68633    -1.70825
O     -0.10868    -0.63441    -1.50245
H     -0.30897     0.30983    -1.68599
O      0.68035     2.21212    -0.93820
H      1.39320     1.73757    -1.42023
O     -0.45386     1.97087    -1.77060
H     -1.11165     2.54250    -1.34608
O      2.01422    -2.01923    -0.66683
H      1.20108    -1.55826    -0.96817
O      1.55322    -2.74968     0.47130
H      2.17782    -2.45717     1.15155
O      0.59089     1.02831     1.50306
H      0.68494     1.50803     0.65543
O     -0.82388     0.81749     1.53260
H     -0.91123    -0.12422     1.24715
O     -1.93993     2.93926     0.47684
H     -1.53181     2.17875     0.95376
O     -3.33148     2.64034     0.53099
H     -3.54688     2.72231     1.46489
O      2.59194    -0.92554     2.42486
H      1.98541    -0.22330     2.13306
O      3.86220    -0.32498     2.18203
H      4.22399    -0.28702     3.07324
O     -1.83564    -2.64183     0.38891
H     -1.59494    -2.42907    -0.53308
O     -0.88968    -1.84269     1.10042
H     -0.03753    -2.29546     0.91790
