 32
-1213.314236389677
O      1.62152     1.27673     2.17105
H      0.96904     1.74954     1.61188
O      0.83016     0.89399     3.30696
H      1.25421     0.04524     3.50019
O     -3.00654    -1.65459    -1.19349
H     -3.49237    -2.39230    -1.57214
O     -2.07054    -2.33442    -0.37232
H     -1.21342    -2.06445    -0.77192
O     -1.64709     1.22728    -2.82553
H     -1.28121     1.35045    -1.93084
O     -1.52555    -0.18684    -2.97964
H     -2.20592    -0.53356    -2.37937
O     -0.70530     1.32503    -0.29359
H     -0.95416     0.76782     0.47237
O      0.03332     2.38591     0.32735
H      0.66748     2.57469    -0.39171
O      1.90823     2.40864    -1.57866
H      2.74803     2.86570    -1.67614
O      2.31370     1.21933    -0.90469
H      1.75728     0.55150    -1.36404
O      0.84735    -0.70619    -1.96963
H      0.00934    -0.50795    -2.45509
O      0.34764    -1.51768    -0.90288
H      1.01864    -1.38350    -0.18862
O      2.02862    -1.12251     1.08862
H      2.10118    -0.17059     1.30456
O      1.49703    -1.62045     2.32348
H      0.54642    -1.68935     2.11716
O     -1.15779    -1.42022     2.04334
H     -1.65449    -1.72784     1.26642
O     -1.33692    -0.00660     1.95275
H     -0.67078     0.31059     2.59570
