 36
-1364.974579541711
O      1.87257    -2.10531    -0.71569
H      2.56599    -2.76824    -0.78169
O      1.62653    -2.06157     0.68213
H      2.05080    -1.20686     0.95271
O      0.26204    -0.82468    -3.04265
H     -0.51859    -0.30512    -3.32861
O     -0.33720    -1.79053    -2.16767
H      0.42716    -2.00341    -1.60247
O      0.34640     2.99919     1.44755
H     -0.25302     2.45772     1.98555
O      1.37416     3.34554     2.38778
H      2.15558     3.04868     1.90410
O     -1.67742     0.99372    -3.27888
H     -1.33529     1.54589    -2.55938
O     -3.06965     0.92315    -2.98611
H     -3.06656     0.47870    -2.12705
O      1.48241     0.96200    -1.43384
H      1.17299     0.25574    -2.03895
O      0.28080     1.72290    -1.25515
H      0.44704     2.15356    -0.39797
O     -1.27520     0.68163     2.38524
H     -1.31799    -0.18957     2.80725
O     -0.36679     0.32012     1.34060
H     -0.96465     0.20216     0.56177
O     -2.71554    -1.49157     0.03907
H     -2.03863    -1.86029     0.64008
O     -1.97315    -0.43974    -0.58852
H     -1.44870    -0.95420    -1.24958
O      3.01307     1.28944     0.74247
H      2.53316     1.09393    -0.09085
O      2.50295     0.28501     1.61891
H      1.61871     0.62810     1.83647
O     -0.67779    -1.90244     2.97108
H     -1.05653    -2.58019     3.53721
O     -0.81086    -2.50549     1.68707
H      0.08618    -2.34762     1.33359
