 36
-1364.975485154711
O      2.26536     2.05610     0.38466
H      1.54701     2.44418    -0.13784
O      1.79861     0.71684     0.53047
H      1.78395     0.61371     1.50756
O     -0.14031    -3.00247     1.30869
H      0.38402    -3.22806     0.52002
O      0.02903    -1.58523     1.27612
H     -0.87496    -1.26211     1.11478
O      2.58580    -0.95656    -1.39491
H      2.29984    -0.30103    -0.72273
O      1.87708    -0.51335    -2.56098
H      1.37199    -1.32918    -2.74016
O      0.44938    -2.69137    -2.06946
H     -0.28852    -2.30600    -1.56885
O      1.28099    -3.20073    -1.02251
H      1.95765    -2.49184    -0.98994
O     -0.03338     2.45651    -1.70861
H     -0.95948     2.75732    -1.58324
O     -0.22382     1.03277    -1.65671
H      0.59913     0.68007    -2.05601
O     -1.56109     0.65329     1.85957
H     -1.04344     0.64661     2.68062
O     -0.84697     1.62748     1.09736
H     -0.30297     1.08909     0.49304
O     -2.55822     3.20390    -1.24981
H     -3.35802     2.71027    -1.45703
O     -2.66904     3.37475     0.16839
H     -1.99666     2.73906     0.48922
O      0.59120    -0.44959     3.58853
H      0.52045    -1.01003     2.78563
O      1.65306     0.42241     3.19688
H      2.34861     0.21897     3.82947
O     -1.75784    -1.74122    -0.81993
H     -2.33970    -2.43416    -0.49570
O     -2.61812    -0.59699    -0.82985
H     -1.97168     0.07813    -1.08850
