 36
-1364.9742073815496
O     -0.29796     3.15648     1.48335
H     -0.97403     3.03076     0.78835
O      0.79169     2.42377     0.92560
H      1.14153     1.96056     1.71267
O     -1.31225    -1.10284    -1.19966
H     -1.19293    -2.02081    -1.53303
O     -2.57048    -0.70449    -1.74478
H     -2.79538    -0.00175    -1.10385
O      1.38137    -0.24464     3.09128
H      1.29823    -0.40393     2.12630
O      1.71595     1.14112     3.09688
H      2.60171     1.13750     3.47439
O      1.02487    -0.64993     0.51131
H      0.10516    -0.79858     0.21330
O      1.68663    -1.81019     0.01196
H      2.08598    -1.46898    -0.81628
O     -1.25457     0.61183     2.21574
H     -1.04966     1.48412     2.59220
O     -1.52182    -0.19566     3.35995
H     -0.62791    -0.51256     3.55191
O     -2.76144     1.23743     0.08458
H     -2.22406     0.97511     0.85680
O     -2.10477     2.42241    -0.36766
H     -1.56614     2.06601    -1.10664
O      2.80837    -1.08649    -2.31198
H      3.63534    -0.81324    -2.71730
O      1.82039    -0.51647    -3.17203
H      1.55803     0.27557    -2.65306
O      0.92050     1.36922    -1.52406
H      0.78992     1.75448    -0.63000
O     -0.41430     1.21165    -2.01557
H     -0.61365     0.26695    -1.83582
O     -0.36960    -3.50336    -1.89772
H     -0.71177    -4.36703    -2.14472
O     -0.20311    -3.66292    -0.48518
H      0.57283    -3.09338    -0.34202
