 24
-909.9713405726559
O     -2.15268     0.57920     0.57095
H     -1.93365    -0.25160     0.11967
O     -2.08787     0.21786     1.95355
H     -1.52088     0.92855     2.28155
O     -1.48691    -1.18362    -1.65589
H     -0.76474    -1.82668    -1.52975
O     -0.85309    -0.24040    -2.52652
H     -1.27366    -0.44548    -3.36848
O      1.91996     1.86217    -0.85143
H      1.02745     2.19957    -0.66180
O      2.01705     0.84577     0.16464
H      2.38653     0.11626    -0.35165
O      0.97453    -2.36559    -1.17805
H      0.88871    -2.14292    -0.23295
O      1.83941    -1.31944    -1.63799
H      1.22456    -0.77048    -2.14711
O      0.02284    -1.49821     2.50535
H     -0.93107    -1.34143     2.49436
O      0.30452    -1.26043     1.12643
H      0.71646    -0.37766     1.12204
O     -0.12747     2.48049     1.72216
H      0.83060     2.35191     1.68681
O     -0.43358     2.59096     0.32100
H     -1.10799     1.88482     0.23698
