 24
-909.975159817157
O     -0.06272    -2.12591     0.37558
H     -0.16576    -1.46790    -0.33866
O      0.37390    -1.33012     1.47780
H     -0.44623    -0.85617     1.72334
O      0.72367     0.52169    -1.69005
H      1.45648    -0.09413    -1.49488
O     -0.37821    -0.39742    -1.68372
H     -1.13339     0.19821    -1.78802
O      2.81633    -0.77919    -0.70438
H      3.64683    -0.52023    -0.28798
O      2.77803    -2.19528    -0.52626
H      2.04434    -2.27889     0.10247
O     -2.92489     1.11666    -1.27308
H     -2.46488     1.58050    -0.55075
O     -3.34653    -0.05079    -0.55685
H     -4.30261     0.06487    -0.53606
O     -1.79226     0.25687     1.58458
H     -2.39187    -0.08865     0.90357
O     -1.38483     1.46498     0.91070
H     -0.42333     1.49415     1.12431
O      1.98821     1.96994     0.39686
H      1.45253     1.75462    -0.38261
O      1.20728     1.38758     1.43647
H      1.40251     0.43891     1.36597
