 20
-758.3072459785794
O     -0.90918     0.03854     2.27661
H     -0.90630    -0.43900     1.43509
O     -0.72053     1.39283     1.86531
H      0.21460     1.38808     1.59336
O      1.62346     1.09394     0.51437
H      1.22012     0.85304    -0.35547
O      2.35349    -0.08561     0.84878
H      3.25809     0.17850     0.65692
O      1.00978    -2.13635    -0.25604
H      1.47416    -1.42249     0.22336
O     -0.24819    -2.15963     0.40497
H     -0.14884    -2.90300     1.00585
O      0.30693     0.51408    -1.70350
H     -0.65581     0.46834    -1.52223
O      0.54127    -0.62552    -2.53736
H      0.65533    -1.31942    -1.86977
O     -2.05580     1.75866    -0.45820
H     -1.68044     1.62048     0.43598
O     -2.23156     0.40256    -0.87449
H     -3.08699     0.44854    -1.31278
