 28
-1061.6396402788835
O     -1.54844    -2.96685     0.13677
H     -0.64549    -2.91439    -0.21250
O     -1.32464    -2.72527     1.53083
H     -1.71730    -1.84667     1.64161
O      1.20967    -1.56063     1.41139
H      0.46427    -2.07524     1.76245
O      1.21531    -2.01396     0.04832
H      1.55298    -1.23079    -0.42701
O     -2.63471     0.71375     0.83240
H     -2.41568     1.39638     0.18439
O     -1.34466     0.18741     1.13653
H      0.50154     2.36744    -0.55221
O      1.05989     1.80543     1.26325
H      0.28249     1.34016     1.61445
O      2.15834     0.96157     1.60694
H      1.78527     0.05740     1.54123
O     -2.07463    -0.78925    -1.89841
H     -2.28598    -1.40264    -1.17757
O     -0.81765    -0.30060    -1.42038
H     -0.77591     0.60394    -1.76907
O     -1.21737     3.06495    -0.81638
H     -1.19782     3.94347    -1.20898
O     -0.04321     2.46148    -1.35230
H     -1.02098    -0.04059     0.23383
O      3.36589     0.57883    -1.00511
H      3.18198     1.04087    -0.17443
O      2.03335     0.15220    -1.31866
H      1.98410     0.30918    -2.26654
