 20
-758.29746643861
O     -1.49090    -1.31899     0.96584
H     -0.58300    -1.29320     0.59331
O     -1.23985    -1.77687     2.29462
H     -1.73127    -2.60250     2.29960
O      1.15658     1.31321     2.07401
H      0.26502     1.57398     1.80642
O      1.85631     1.57335     0.85368
H      2.70518     1.89436     1.17162
O      0.85391    -0.68191    -0.10551
H      1.33893     0.11195     0.20511
O      1.88393    -1.52251    -0.64146
H      1.63124    -1.52023    -1.57407
O     -0.05046    -1.03977    -3.12999
H     -0.72258    -0.93465    -3.81277
O      0.19886     0.32167    -2.74941
H     -0.08697     0.30100    -1.82309
O     -1.17729     1.50557    -0.36632
H     -1.97897     1.85882    -0.76718
O     -1.55722     1.41845     1.00996
H     -1.68442     0.45291     1.09551
