 36
-1364.978004466223
O     -1.43688     3.38948     0.86851
H     -1.67603     2.43588     0.79537
O     -0.48261     3.33604     1.92815
H     -0.98446     3.65727     2.68401
O     -1.80902     0.77969     0.56329
H     -1.41655    -0.03007     0.94775
O     -1.49619     0.61328    -0.81982
H     -0.66546     1.13796    -0.93824
O      1.70630    -2.09398     2.03262
H      2.50206    -2.60018     2.23166
O      0.72674    -2.74170     2.84232
H     -0.01242    -2.76068     2.21428
O      0.82003    -0.95482    -1.98792
H     -0.04056    -1.24771    -2.34546
O      1.04570    -1.96648    -0.99185
H      1.79872    -1.55943    -0.51918
O      0.18113     3.59291    -1.40344
H     -0.42036     3.64573    -0.64487
O      0.53493     2.20954    -1.35964
H      1.46295     2.22410    -1.08071
O      0.31381     0.13192     2.21800
H      0.95544    -0.60707     2.19350
O      1.02642     1.13052     1.47827
H      0.49791     1.92920     1.67764
O     -1.56910    -1.64853    -2.97435
H     -1.99125    -1.29527    -3.76325
O     -2.57588    -1.47948    -1.98158
H     -2.22654    -0.67721    -1.53395
O      2.96173     0.72225    -1.21910
H      2.44862     0.24670    -1.88698
O      2.75653    -0.14035    -0.10222
H      2.20887     0.41148     0.49454
O     -1.09034    -2.09520     0.59609
H     -0.29221    -2.09840     0.01798
O     -1.82708    -3.20157     0.06862
H     -2.27998    -2.76839    -0.66995
