 36
-1364.9828508169098
O      0.57522     1.07945     1.79678
H      0.18201     0.26577     2.19370
O      1.69072     0.54001     1.08622
H      1.34658     0.54252     0.16714
O     -0.33997    -1.83323    -0.87799
H     -0.72962    -1.04975    -1.33217
O     -1.52095    -2.46812    -0.38627
H     -1.59663    -2.07151     0.50407
O     -1.73413    -1.37332     2.07240
H     -2.03744    -0.44781     2.04380
O     -0.45576    -1.21453     2.69915
H      0.06512    -1.92711     2.27125
O      2.66320    -1.65456    -1.67768
H      2.67566    -1.94927    -0.74069
O      3.91674    -0.97609    -1.77075
H      4.40659    -1.57325    -2.34276
O     -2.48047     1.23135     1.62823
H     -1.91545     1.94098     1.23719
O     -3.31170     0.91915     0.51030
H     -4.08890     1.46929     0.65111
O      0.20767     3.08839     0.14396
H      0.39745     2.46117     0.87567
O     -1.21586     3.00954     0.10242
H     -1.35924     2.57592    -0.76018
O      0.88467     0.60970    -1.45516
H      1.51618    -0.01065    -1.86246
O      1.19505     1.86632    -2.05811
H      0.95952     2.44163    -1.30431
O     -1.83366     0.25423    -1.60738
H     -2.45210     0.43981    -0.87707
O     -1.59769     1.56606    -2.12697
H     -0.74168     1.42690    -2.55691
O      2.37789    -2.08005     0.96912
H      2.19125    -1.15730     1.23496
O      1.10499    -2.71548     1.12513
H      0.65750    -2.52636     0.26663
