 20
-758.3026077024292
O     -0.59975    -0.93520     0.10727
H     -1.44942    -1.07421     0.55927
O     -0.29548    -2.21889    -0.46218
H      0.65398    -2.24387    -0.26568
O      2.81773    -0.95637    -0.78963
H      2.72654    -0.10233    -0.32777
O      2.32461    -1.84568     0.21961
H      3.05111    -2.47140     0.28955
O     -0.28644     1.20567    -1.43744
H     -0.44209     0.36749    -0.95154
O     -1.49785     1.92109    -1.17357
H     -1.85361     2.00910    -2.06200
O      1.34201     1.17067     1.41041
H      0.90080     0.34386     1.16028
O      2.07857     1.48928     0.22916
H      1.37924     1.77074    -0.38132
O     -3.11627     0.25460     0.37939
H     -2.60058     0.97725    -0.00579
O     -2.54003     0.21543     1.68886
H     -3.28751    -0.10493     2.20055
