 40
-1516.6444887202813
O      1.74934    -1.95675    -0.80307
H      0.91226    -1.88410    -1.30883
O      2.22982    -0.61656    -0.86448
H      2.22416    -0.34010     0.07012
O      1.01938     3.07529    -0.17396
H      1.05171     4.03521    -0.15038
O     -0.37354     2.82628    -0.34374
H     -0.35773     2.26839    -1.15478
O     -1.27677     0.82621     1.57253
H     -0.85185     1.65045     1.29481
O     -0.39537     0.35150     2.59466
H     -0.16360    -0.53290     2.22774
O      0.14862    -1.99654     1.53249
H      0.94529    -2.24148     1.02654
O      0.07141    -2.92866     2.60044
H      0.69864    -2.52093     3.21503
O      2.14356     1.24111     1.44922
H      1.79016     1.92509     0.84934
O      1.82281     1.80284     2.72209
H      0.95215     1.38157     2.86895
O     -0.28076     1.06427    -2.32222
H     -0.83693     1.10351    -3.12636
O      1.00035     0.73809    -2.86748
H      1.40225     0.27785    -2.10623
O     -2.91168     1.96257    -3.24656
H     -3.03510     1.44974    -2.43132
O     -2.24789     0.99325    -4.05126
H     -2.89852     0.77603    -4.72636
O     -1.61090    -2.36435    -0.87594
H     -1.14514    -2.26365    -0.03150
O     -0.72029    -1.72871    -1.79287
H     -1.07040    -0.81968    -1.83539
O     -2.49617     0.35269    -0.77880
H     -2.16811     0.43530     0.13547
O     -3.59077    -0.55782    -0.61525
H     -3.11122    -1.38779    -0.77473
O      2.35180    -1.10034     3.21667
H      2.55341    -0.18332     2.96800
O      3.09075    -1.84685     2.24564
H      3.78884    -2.23886     2.78254
