 28
-1061.639349297926
O     -1.85358    -2.50797    -1.66385
H     -2.53424    -3.03601    -2.09443
O     -2.32088    -2.51228    -0.31546
H     -1.61300    -2.99197     0.14757
O     -0.35613    -2.37005     1.77860
H     -0.03839    -1.46113     1.93419
O      0.44238    -2.80463     0.67742
H      0.52498    -2.01707     0.12395
O      0.09001     0.30243     1.71411
H     -0.78139     0.38732     1.27296
O      0.42582     1.66671     1.97347
H      2.11570    -1.01194    -1.71141
O      2.80821     0.93462     0.80604
H      2.41262     0.27089     0.21522
O      3.39466     1.85051    -0.11681
H      2.66795     2.47355    -0.25402
O     -2.26554     0.57421    -0.91532
H     -1.62171     0.00316    -1.36292
O     -2.20138     0.08836     0.43283
H     -2.42125    -0.85744     0.31295
O      0.47938    -0.09561    -1.57456
H      0.59902     0.84714    -1.31568
O      1.61194    -0.70195    -0.95263
H      1.38781     1.56739     2.03541
O      0.42167     2.36419    -0.60875
H      0.29666     2.28230     0.36383
O     -0.83256     2.88093    -1.04327
H     -1.41182     2.10265    -0.95990
