 36
-1364.9729069340708
O      0.65982     0.34209    -2.16117
H      0.90738     1.24585    -1.89748
O      1.50855     0.05602    -3.27318
H      2.10065    -0.59267    -2.86673
O     -1.36711    -2.23828    -2.24368
H     -0.63324    -2.36489    -2.86590
O     -1.69798    -0.85452    -2.39889
H     -0.81109    -0.43214    -2.42486
O      0.16013     0.66551     2.98256
H     -0.54933     1.28189     3.24905
O     -0.37091    -0.59251     3.41096
H     -0.17209    -1.11937     2.62656
O      2.12107    -2.51216    -1.97086
H      1.50985    -2.53923    -1.20313
O      1.35525    -3.18778    -2.97443
H      1.78479    -4.04905    -3.00894
O     -1.86239     2.54702     1.98234
H     -2.16396     1.68731     1.61285
O     -1.91410     2.28176     3.37971
H     -2.25853     3.11289     3.71797
O     -2.09984     0.22811     0.76633
H     -1.23383    -0.23445     0.69634
O     -2.15944     0.96849    -0.45386
H     -2.27276     0.27110    -1.12827
O      0.54124     2.60680     0.67594
H     -0.22950     2.74738     1.25791
O     -0.04557     2.66443    -0.63086
H     -0.83175     2.09428    -0.53595
O      2.48346     0.00221     1.78390
H      1.71104     0.30526     2.29690
O      2.16269     0.44927     0.46919
H      1.76297     1.33541     0.61098
O      0.18864    -2.45714    -0.05535
H     -0.56246    -2.41288    -0.67943
O      0.12293    -1.16093     0.52916
H      0.99327    -0.72157     0.32010
