 32
-1213.3066001423822
O      0.86838    -1.78318     3.44856
H      1.15845    -1.70359     4.36073
O      1.02370    -0.43682     3.01387
H      1.46885    -0.57055     2.14304
O     -0.22912    -1.45953    -0.69601
H     -0.94613    -1.50895    -0.04141
O     -0.37331    -2.67241    -1.43238
H     -0.50711    -2.31282    -2.31893
O      0.09036    -1.23058    -4.05302
H      0.76652    -0.74463    -3.54555
O     -0.85138    -0.17606    -4.28262
H     -0.72785    -0.01076    -5.22296
O      1.94372    -0.58108     0.54557
H      1.24172    -0.90953    -0.05811
O      2.21968     0.72446     0.03421
H      1.64458     1.30387     0.58496
O      1.47951     0.64293    -2.52281
H      1.88392     0.71021    -1.63070
O      0.50872     1.69708    -2.46234
H     -0.12980     1.36810    -3.11121
O     -1.92214     1.72936     0.58321
H     -2.12510     0.97686     1.16498
O     -1.83711     1.09524    -0.69191
H     -0.91160     1.25378    -0.92865
O      0.56196     2.33766     1.36698
H     -0.38148     2.29936     1.08880
O      0.45205     2.28088     2.78983
H      0.59436     1.33458     2.94595
O     -1.54099    -1.46329     1.94110
H     -0.88217    -1.47362     2.65381
O     -2.36582    -0.36932     2.33606
H     -3.22252    -0.79819     2.41431
