 24
-909.9777022439788
O     -0.23576    -2.18107    -1.60125
H      0.71184    -2.26262    -1.40049
O     -0.79316    -2.53951    -0.32902
H     -1.64580    -2.08441    -0.36022
O     -1.91624    -0.08169     1.37533
H     -2.09364     0.85257     1.56781
O     -2.66986    -0.31661     0.18344
H     -2.16363     0.17237    -0.48422
O      2.25213    -1.52587    -0.62939
H      1.89109    -1.20100     0.22269
O      2.47867    -0.30859    -1.34265
H      3.31572     0.00347    -0.97921
O     -0.77466     0.43729    -1.92182
H     -0.51302    -0.50480    -1.84074
O      0.21988     1.12791    -1.15406
H      1.03712     0.58842    -1.25566
O      1.64390     0.66863     1.39610
H      0.93401     1.30567     1.60213
O      1.03381    -0.60581     1.60259
H      0.09149    -0.45556     1.41145
O     -0.19193     2.60230     1.72475
H      0.03984     3.53681     1.71299
O     -1.14578     2.50584     0.67343
H     -0.61224     2.04970    -0.01452
