 36
-1364.972038842106
O      1.03795     2.40557     0.12956
H      1.92360     2.12621    -0.18414
O      1.05085     1.97931     1.49188
H      0.09215     1.96133     1.69988
O     -2.33046    -1.81736     0.88625
H     -2.26402    -1.21329     1.65038
O     -1.76910    -0.95888    -0.11652
H     -0.87459    -1.33436    -0.26614
O      1.87078    -0.56068     1.86556
H      1.57762     0.35990     1.67653
O      0.90632    -1.01974     2.81940
H      0.58120    -1.79871     2.34203
O      3.47974     1.91388    -0.81915
H      3.95232     2.40630    -1.49671
O      3.92292     0.57364    -1.02154
H      3.15926     0.18567    -1.48883
O     -1.55740     0.10370     2.63327
H     -0.61916    -0.11605     2.79282
O     -1.46440     1.30315     1.87061
H     -1.66413     0.99052     0.96943
O     -1.35299     2.03336    -0.90168
H     -0.46150     2.29869    -0.59781
O     -1.01547     1.31893    -2.09271
H     -1.88094     0.95938    -2.34504
O      1.76081    -0.75146    -2.04353
H      1.90921    -1.63305    -1.67422
O      0.80946    -0.30188    -1.07185
H      0.22889     0.30149    -1.58636
O     -4.58424     0.04880    -1.79458
H     -5.16794    -0.55372    -2.26299
O     -3.30891    -0.42803    -2.22376
H     -2.91361    -0.71980    -1.37520
O      0.59386    -2.78949     0.54486
H      0.52069    -3.74921     0.59344
O      1.93845    -2.61779     0.09007
H      2.18041    -1.85131     0.64105
