 32
-1213.3108130086355
O      1.95896     2.89043    -0.77002
H      1.37475     2.37826    -1.38007
O      3.09792     2.04742    -0.62776
H      3.59949     2.20672    -1.43354
O     -3.12945    -1.78926     1.14128
H     -3.01717    -1.17291     0.38273
O     -2.73844    -3.02058     0.52669
H     -3.58454    -3.47266     0.45975
O     -2.10738    -0.36088    -0.80712
H     -1.47616    -1.01396    -1.16085
O     -2.82218     0.08929    -1.95664
H     -2.34036     0.91845    -2.12237
O     -0.78999    -0.70570     2.10932
H     -1.62957    -1.19453     1.99395
O      0.17818    -1.74967     1.96368
H      1.00262    -1.23789     2.04256
O     -0.15343     1.46959     0.70512
H     -0.42664     0.65012     1.17652
O      0.74861     2.05692     1.64411
H      1.11316     2.75449     1.08792
O      0.65717    -1.05630    -1.11849
H      1.41305    -0.88858    -0.51952
O      0.16997    -2.32236    -0.69142
H      0.05511    -2.19590     0.27107
O      2.75793    -0.39408     0.38659
H      2.87114     0.56732     0.22906
O      2.60654    -0.49655     1.79381
H      3.40287    -0.97922     2.02821
O     -0.81044     1.90692    -1.77720
H     -0.68507     1.79548    -0.81079
O      0.40212     1.34178    -2.25989
H      0.35721     0.42063    -1.92961
