 40
-1516.6356840289927
O      2.90846    -1.27595     1.83131
H      2.28909    -0.54681     2.04733
O      3.75477    -0.66025     0.86391
H      4.58900    -0.61944     1.34322
O     -1.07340     1.06540    -0.90639
H     -1.63382     1.58018    -0.30141
O     -2.05009     0.35780    -1.67971
H     -1.67062     0.50036    -2.56756
O     -2.43337     1.11552     2.41462
H     -1.66026     0.52824     2.53563
O     -2.86955     0.79248     1.09365
H     -2.85195    -0.17896     1.04983
O      0.96591     0.44319     2.46781
H      0.59902     1.30266     2.16266
O     -0.20402    -0.33565     2.72317
H     -0.04528    -1.13430     2.17932
O      0.16768     2.78166     1.43484
H      0.55252     2.59988     0.56261
O     -1.18483     3.10223     1.10272
H     -1.67544     2.54273     1.73590
O      1.80521     1.23300    -0.42187
H      2.66070     0.78330    -0.49841
O      1.84038     2.21253    -1.45872
H      1.33948     1.77333    -2.16395
O     -0.83159     0.68685    -4.05891
H     -0.85680     1.45571    -4.63526
O      0.57556     0.60977    -3.77147
H      0.58182    -0.13173    -3.12220
O      0.10452    -2.50044     1.15122
H     -0.48146    -2.56229     0.38029
O      1.30345    -3.12222     0.67478
H      1.96158    -2.60389     1.17154
O      0.59151    -1.03068    -1.71517
H      0.57909    -0.36229    -0.99769
O      1.89749    -1.60218    -1.59236
H      1.72379    -2.32924    -0.96878
O     -3.03058    -1.83011     0.50015
H     -3.86193    -2.18806     0.17604
O     -2.15080    -2.07178    -0.59398
H     -2.11729    -1.18287    -1.02171
