 28
-1061.6456117828882
O     -0.00660    -1.79699     0.28113
H      0.15513    -1.12454     0.97838
O     -0.90719    -2.67123     0.95029
H     -1.70367    -2.52276     0.42590
O      2.11879    -1.36076    -1.23785
H      1.26597    -1.57376    -0.80549
O      1.78035    -0.21322    -2.02646
H      2.40364     0.42400    -1.63878
O     -2.75782    -0.75664    -0.30931
H     -2.00138    -0.32521    -0.76844
O     -3.48096    -1.26619    -1.42397
H     -0.43595     0.64961     2.01804
O     -0.43623     1.83163    -0.74045
H      0.20766     1.58503    -0.04737
O     -0.71464     0.56410    -1.34983
H      0.15371     0.29190    -1.71724
O     -2.40204     2.24936     1.13288
H     -1.76842     2.25770     0.39313
O     -2.08204     1.01811     1.78558
H     -2.53447     0.36870     1.21849
O      1.19277     1.26194     1.28573
H      2.09169     0.89179     1.27975
O      0.45021     0.22567     1.94313
H     -4.33318    -0.84120    -1.29362
O      3.56738     0.97501    -0.45778
H      4.51025     1.02945    -0.64832
O      3.53515    -0.01775     0.57342
H      3.14887    -0.75693     0.06295
