 40
-1516.650160974736
O      2.84856    -0.34834    -0.23704
H      2.77571    -1.22572    -0.65611
O      2.64410    -0.64074     1.14354
H      2.06013     0.09986     1.42893
O     -0.71375    -0.82055    -0.76020
H     -0.15309    -0.02552    -0.92621
O     -1.95150    -0.40670    -1.33406
H     -2.27490     0.14274    -0.58863
O     -1.55093     2.03872     1.01836
H     -1.63991     2.55534     0.18727
O     -2.50533     0.98909     0.82760
H     -2.62720     0.68912     1.74894
O      0.76200     1.03540     1.88375
H     -0.09482     1.45249     1.62850
O      0.39173     0.16318     2.94803
H      0.16435    -0.65862     2.45602
O     -1.48107     3.46192    -1.19309
H     -1.80827     4.30580    -1.51784
O     -0.14022     3.78575    -0.82522
H      0.30954     2.99910    -1.16956
O      0.94023     1.16827    -1.26002
H      1.75521     0.79279    -0.85846
O      1.32650     1.19328    -2.64228
H      1.03853     0.29252    -2.92728
O      0.63199    -1.27572    -3.30780
H      0.64460    -2.01110    -2.66671
O     -0.74980    -1.20154    -3.66881
H     -1.15086    -0.84047    -2.86472
O     -0.13475    -2.02160     1.51036
H     -0.37488    -1.66299     0.62825
O      1.05230    -2.75878     1.22557
H      1.72851    -2.05272     1.30521
O      1.10706    -3.18019    -1.44070
H      0.98717    -3.21118    -0.46948
O      2.43853    -2.67718    -1.51248
H      2.77960    -3.13802    -2.28246
O     -1.88857     1.08746     4.11201
H     -1.03214     0.74584     3.78920
O     -2.77206     0.20455     3.40753
H     -3.50523     0.13365     4.02511
