 28
-1061.63793213467
O      1.44087    -0.70491    -2.44552
H      2.04237    -0.47220    -1.71127
O      1.29887    -2.11645    -2.24575
H      0.48801    -2.13627    -1.71894
O      1.01234    -1.10736     1.58893
H      0.07973    -1.38742     1.69851
O      1.18000    -0.20258     2.68221
H      1.05084     0.63781     2.22256
O      0.78553     2.40815    -0.35593
H      1.66284     2.03437    -0.19762
O      0.00746     1.51102     0.44827
H     -0.18363     0.05636    -2.37564
O     -1.55988    -1.88745     1.91172
H     -1.82803    -2.80737     2.00397
O     -2.53556    -1.38090     1.00049
H     -1.97178    -1.21853     0.20931
O     -2.52616     1.99856    -0.22644
H     -2.58492     1.52375    -1.06868
O     -3.58128     1.44566     0.55561
H     -3.16365     0.67194     0.95857
O     -0.75751    -0.66853    -0.77460
H     -0.32484     0.05370    -0.25952
O     -1.06845     0.08428    -1.95737
H     -0.88909     1.89555     0.35420
O      3.06916     1.04776     0.25702
H      4.00773     1.15743     0.07669
O      2.86389    -0.28240    -0.21467
H      2.31649    -0.65765     0.50723
