 36
-1364.9725967332295
O      1.95541     0.84903    -0.39365
H      1.45764     0.07453    -0.05469
O      2.16978     0.50600    -1.76775
H      2.68483    -0.31734    -1.69376
O     -0.30684     1.86670     1.10927
H     -1.09070     1.45452     0.69135
O      0.12554     2.75145     0.08703
H      0.89017     2.25051    -0.25364
O     -2.55446     1.69806     3.50632
H     -1.89190     1.24512     4.04697
O     -1.99769     3.00173     3.36081
H     -1.41150     2.89445     2.59920
O     -0.13014     0.63893    -3.15504
H      0.71937     0.66970    -2.66966
O     -1.05906     1.02819    -2.14575
H     -1.25194     1.94225    -2.38088
O     -0.32849    -2.04221    -3.52189
H     -0.38605    -1.06838    -3.53654
O      0.77887    -2.18880    -2.62917
H      1.45253    -2.61541    -3.17432
O     -2.35184     0.32572     0.45982
H     -1.85417    -0.42242     0.07440
O     -2.88448    -0.23277     1.65768
H     -2.99335     0.57094     2.19691
O     -0.20809     0.22648     3.23058
H     -0.10817     0.79347     2.44600
O     -0.54004    -1.03904     2.65598
H     -1.47855    -0.91048     2.40911
O      3.63762    -1.73884    -1.39271
H      4.50175    -1.66052    -0.97012
O      3.14854    -2.97725    -0.89260
H      2.39246    -2.67249    -0.36943
O      0.68053    -1.35538     0.33703
H      0.32383    -1.32280     1.25990
O     -0.53446    -1.47555    -0.42142
H     -0.18936    -1.74754    -1.29746
