 36
-1364.9746334161846
O      0.55283     2.53502     1.93104
H      0.95728     2.51233     1.05134
O     -0.26059     1.36719     1.83643
H      0.14723     0.71977     2.43437
O      1.25539    -2.13915     0.87510
H      1.25519    -2.13948    -0.11088
O      2.00516    -0.95085     1.15389
H      2.88541    -1.19692     0.79155
O     -1.70319    -1.29244     1.93735
H     -2.22979    -0.56856     2.30756
O     -0.49463    -1.21660     2.70174
H      0.11757    -1.68277     2.10324
O      1.40892    -1.79792    -1.74406
H      1.23113    -0.83377    -1.80863
O      0.22047    -2.36009    -2.29739
H     -0.46250    -1.96617    -1.72096
O     -3.46835     0.79661     1.24153
H     -3.38292     0.24444     0.44231
O     -2.64925     1.90623     0.87882
H     -1.82550     1.70371     1.37192
O     -1.38232     2.35209    -1.44520
H     -1.88970     2.24495    -0.60482
O     -2.20069     1.65187    -2.37865
H     -2.74205     2.35485    -2.75083
O      1.67299     1.23797    -0.31331
H      1.61760     0.45557     0.27665
O      0.90902     0.79434    -1.43557
H      0.09806     1.34589    -1.40050
O      4.01677    -1.40986    -0.47816
H      3.54383    -1.75552    -1.24978
O      4.48046    -0.13458    -0.91099
H      3.70512     0.43272    -0.78090
O     -2.77669    -0.57109    -0.96034
H     -2.57564     0.15827    -1.57309
O     -1.45000    -1.02289    -0.68663
H     -1.46740    -1.13289     0.29224
