 32
-1213.313181427522
O      2.29179     1.04672     0.19758
H      2.87452     0.39477     0.63814
O      2.34098     0.62022    -1.17266
H      1.45084     0.90308    -1.48613
O      0.66361    -2.17608    -1.25117
H      0.26993    -2.32496    -0.36816
O      2.04773    -2.03728    -0.92961
H      2.20585    -1.09773    -1.15729
O     -2.54299     0.27758    -0.43675
H     -2.30919    -0.54924     0.02247
O     -3.20301    -0.19366    -1.61328
H     -2.43265    -0.24353    -2.20540
O     -0.06926     0.49461     1.29019
H      0.77687     0.76073     0.85183
O     -0.15440     1.35767     2.41673
H     -0.73978     2.02968     2.04161
O     -0.17133     1.05413    -1.80329
H     -0.85108     1.20500    -1.11611
O     -0.63658    -0.14190    -2.43177
H     -0.12112    -0.84865    -1.98623
O      2.36745    -1.57669     1.72021
H      2.34466    -1.97707     0.83170
O      3.57456    -0.82263     1.61470
H      3.85074    -0.77729     2.53493
O     -0.55230    -2.06683     1.15175
H     -0.35555    -1.11696     1.35100
O     -1.94079    -1.99023     0.83833
H     -2.34925    -2.36700     1.62342
O     -1.26842     2.95331     0.12397
H     -1.00551     3.61526    -0.52497
O     -2.68212     3.15674     0.22218
H     -2.98216     2.27275    -0.04659
