 36
-1364.976340715164
O      0.91845     0.89549    -2.38167
H      0.98734     1.74519    -1.93137
O      1.77390     0.12193    -1.53822
H      1.52006    -0.78774    -1.76167
O     -2.09384    -2.65768     1.90525
H     -2.87408    -2.97298     2.37241
O     -2.07462    -3.48489     0.74328
H     -2.36834    -2.85089     0.05987
O      3.39372     0.09297     0.60593
H      2.84118     0.08802    -0.19466
O      2.93005    -1.07535     1.28326
H      2.24474    -0.68055     1.85994
O      1.96128     1.82915     1.97842
H      2.74357     1.40760     1.57128
O      1.26726     0.64191     2.37680
H      0.44177     0.70800     1.84668
O     -1.88798     2.49699    -2.02966
H     -1.40031     2.95342    -1.32499
O     -1.83227     1.16074    -1.53593
H     -1.23822     0.70482    -2.15710
O     -2.53429    -1.50691    -1.10318
H     -2.76947    -0.56502    -1.11308
O     -1.30452    -1.48708    -1.84031
H     -0.65855    -1.65531    -1.12502
O     -0.33323     3.56302     0.01833
H     -0.12089     4.49457    -0.08026
O      0.92619     2.96566    -0.28281
H      1.20827     2.62751     0.59460
O      0.39763    -2.19959     0.05491
H     -0.02432    -3.02816     0.33956
O      1.63335    -2.61638    -0.53292
H      2.24671    -2.21949     0.11362
O     -2.20177     0.32918     1.56728
H     -2.03991    -0.62071     1.63406
O     -0.97989     0.75187     0.97634
H     -1.26871     0.98967     0.06749
