 20
-758.3068258973311
O     -0.45760    -1.49091     0.92313
H     -0.88703    -0.82320     1.50090
O      0.76563    -1.77902     1.59898
H      1.38975    -1.25101     1.08599
O      2.15353     0.48081    -1.17988
H      1.58157    -0.19217    -1.59342
O      2.88163    -0.32499    -0.25343
H      3.78622    -0.17196    -0.54276
O     -1.71200     0.33967     2.39904
H     -2.50745     0.33547     2.93864
O     -2.19315     0.90867     1.17680
H     -1.38367     1.36932     0.87988
O      0.14847    -1.32613    -1.63233
H     -0.13128    -1.42068    -0.68504
O     -0.94860    -0.59164    -2.18188
H     -1.48250    -1.29467    -2.55939
O      0.13101     1.73169     0.16183
H      0.97292     1.37986    -0.18900
O     -0.53669     2.15767    -1.02448
H     -0.82291     1.30752    -1.38518
