 36
-1364.9749453809923
O      0.98193    -0.84574     3.13444
H      1.51719    -0.07728     3.38060
O      1.89644    -1.52776     2.26415
H      1.29395    -2.14983     1.81923
O      1.55963     2.53931     2.30729
H      2.08442     3.32649     2.48856
O      2.51321     1.49391     2.50072
H      2.58772     1.13932     1.60060
O     -0.70931     2.73305    -1.50946
H     -1.54746     2.27515    -1.30348
O     -0.09259     2.83039    -0.22828
H      0.76714     2.40714    -0.38245
O      0.43631     0.66616    -2.83812
H      0.02337     1.46571    -2.45742
O     -0.55950    -0.32663    -2.59913
H     -0.08201    -0.96672    -2.04754
O      0.96433    -2.11343    -0.70795
H      1.92184    -2.12253    -0.57375
O      0.48533    -2.86704     0.41145
H     -0.47750    -2.76587     0.26402
O     -3.02346     0.06562    -0.32322
H     -2.58541     0.54707     0.40852
O     -2.66715     0.85934    -1.45874
H     -2.05347     0.26563    -1.92939
O     -0.62550    -0.15235     1.13700
H     -0.17870    -0.38205     1.98690
O     -1.31888     1.06316     1.44860
H     -0.76918     1.72599     0.99297
O      2.54335     0.10348    -1.29041
H      1.94794     0.27105    -2.04822
O      1.76485     0.66769    -0.25051
H      1.10703    -0.01785    -0.02884
O     -2.23315    -2.81786    -1.72916
H     -2.95706    -3.44392    -1.63988
O     -2.05371    -2.43014    -0.37436
H     -2.44729    -1.52673    -0.36241
