 28
-1061.6350979919048
O     -0.03136    -1.88511     2.40239
H     -0.56590    -2.60755     2.74066
O      0.15864    -2.31184     1.05093
H     -0.28243    -1.59655     0.54181
O      2.32064    -1.33099    -0.55134
H      1.83128    -1.84858     0.10808
O      1.60947    -1.69058    -1.73449
H      2.33555    -1.90765    -2.32499
O     -3.00548    -1.00470     1.97671
H     -2.96897    -0.79154     1.03351
O     -2.08008    -0.04807     2.50985
H     -0.55216     0.63033    -0.00713
O     -0.77486     1.93488     0.90317
H     -1.43972     1.56380     1.50679
O      0.34376     2.04980     1.79688
H      1.07967     1.91641     1.16660
O      0.46638     0.81839    -2.78331
H      0.48712    -0.00498    -2.26715
O     -0.93538     1.03431    -2.91097
H     -1.09194     0.81458    -3.83628
O     -1.95916    -0.31710    -0.86318
H     -1.87928     0.26689    -1.63351
O     -0.58592    -0.26204    -0.44962
H     -1.25688    -0.56680     2.54989
O      2.50848     2.09705    -1.08018
H      1.66756     2.01047    -1.55013
O      2.27155     1.32833     0.09469
H      2.34876     0.40966    -0.21711
