 32
-1213.3050232666685
O      3.53262     0.47789     1.65011
H      4.33459     0.25016     1.17057
O      3.46038    -0.55118     2.64228
H      2.85078    -1.18841     2.20972
O     -1.72401    -0.92105     0.36770
H     -1.63722    -1.15620    -0.57606
O     -2.09870    -2.14723     0.99156
H     -1.26115    -2.36753     1.42833
O     -1.98724    -0.58005    -3.85619
H     -2.87704    -0.90501    -3.69557
O     -1.48090    -0.52233    -2.52259
H     -1.41852     0.45002    -2.38010
O      1.04423     1.06259     0.92545
H      1.95709     0.91457     1.26224
O      0.25495     0.64136     2.04681
H     -0.58165     1.08196     1.81671
O     -1.01274     2.01134    -1.90793
H     -0.94295     2.23815    -0.96588
O      0.23576     2.41978    -2.45955
H      0.74463     1.59598    -2.44710
O      1.00018    -0.86643    -0.87162
H      0.89675    -0.03350    -0.36046
O      1.41839    -0.41349    -2.15305
H      0.66281    -0.71785    -2.67714
O      1.72618    -2.19917     1.39327
H      1.42828    -1.89412     0.51501
O      0.55438    -2.05884     2.19837
H      0.47894    -1.09013     2.26986
O     -2.88940     1.41821     0.67166
H     -2.54332     0.50026     0.64707
O     -1.66850     2.11153     0.97488
H     -2.00213     2.93934     1.33211
