 16
-606.6369503076211
O      0.27497     0.22488    -0.86625
H      0.04085     0.88468    -1.54181
O     -0.20053     0.90774     0.30312
H      0.40814     0.54314     0.97666
O      1.35351    -0.29279     2.10981
H      2.18639    -0.74973     1.95342
O      0.53231    -1.32615     2.66618
H      0.02680    -1.60219     1.87763
O     -0.34263     2.45824    -2.28525
H      0.36769     3.05774    -2.53676
O     -1.03545     3.22146    -1.28530
H     -0.83791     2.69065    -0.49961
O     -0.80524    -1.93322     0.34810
H     -0.49883    -1.23679    -0.26611
O     -0.31946    -3.11863    -0.28432
H     -1.14278    -3.59718    -0.42057
