 36
-1364.9730162264887
O      0.94271     2.19199    -0.02164
H      1.10860     1.46137    -0.65569
O      2.26007     2.53295     0.42079
H      2.37263     1.86323     1.11909
O     -0.19621    -2.68182    -1.54697
H     -0.41799    -2.60854    -2.48943
O     -1.47951    -2.78591    -0.93779
H     -1.68387    -1.86202    -0.72589
O     -0.75056     0.50618     1.74408
H     -0.99493     1.41986     1.96523
O     -1.22365    -0.22998     2.88397
H     -0.91011    -1.11279     2.61341
O      1.97775     0.44937     2.09880
H      1.01483     0.31418     2.08807
O      2.48359    -0.78583     1.58966
H      2.42310    -0.68655     0.61932
O     -1.06100     3.30076     1.23023
H     -0.22060     3.08102     0.76380
O     -1.91863     3.45815     0.09786
H     -2.56468     4.07696     0.44677
O     -1.30022     0.26812    -0.84155
H     -0.98377     0.26507     0.09473
O     -2.57850     0.88936    -0.69240
H     -2.30811     1.80075    -0.48880
O      1.94621    -1.05029    -1.03868
H      1.16294    -1.62551    -1.12892
O      1.53017     0.17764    -1.64120
H      1.15501    -0.09404    -2.50313
O     -1.15268    -0.75890    -3.31276
H     -1.20508    -0.26257    -2.46748
O      0.10564    -0.33442    -3.83060
H     -0.14660     0.28928    -4.51861
O      0.89822    -2.84467     2.28278
H      1.52683    -2.12442     2.07295
O     -0.26522    -2.35879     1.59972
H     -0.50431    -3.09518     1.02011
