 32
-1213.3071775841331
O      3.16728     0.96255     2.21401
H      2.60073     0.23145     2.49236
O      2.45749     1.43576     1.07421
H      1.86175     2.11060     1.45652
O      0.34059    -2.52983     0.03924
H      0.86321    -1.75676    -0.27146
O     -0.63051    -2.65974    -1.00064
H     -1.39786    -2.18218    -0.63792
O     -0.60530     1.75476    -1.04771
H     -0.27491     0.87437    -1.31591
O     -1.96443     1.77968    -1.46584
H     -2.35321     1.10494    -0.88957
O      0.37303     2.97375     1.80370
H     -0.05119     3.52175     2.47014
O     -0.62494     1.98034     1.56199
H     -0.66378     2.00606     0.56894
O      1.47645    -0.29270    -0.73448
H      1.90002     0.34850    -0.11803
O      2.44762    -0.44004    -1.77346
H      1.83858    -0.75199    -2.46273
O     -0.85595    -0.39076    -3.01936
H     -0.61619     0.29031    -3.65532
O      0.24164    -1.30186    -3.12163
H     -0.03626    -1.94541    -2.43751
O     -0.71475    -1.26960     2.16417
H     -0.34426    -1.91580     1.52695
O      0.39608    -0.37907     2.32544
H     -0.01761     0.48225     2.11001
O     -2.66621    -0.17870     0.71300
H     -1.99676    -0.51307     1.35693
O     -2.81904    -1.32621    -0.12276
H     -3.64410    -1.70833     0.19426
