 40
-1516.6469163055406
O      0.82008     3.80824    -0.34937
H      1.59837     4.35190    -0.50022
O      1.25336     2.89814     0.66815
H      1.83162     2.26542     0.16179
O      3.63353     0.95329     0.47216
H      3.03837     0.33577     0.94117
O      2.85285     1.27923    -0.67421
H      2.65172     0.39818    -1.06201
O     -2.08432     2.29366     0.65795
H     -2.44824     3.12216     0.32471
O     -1.47442     2.67161     1.89412
H     -0.53888     2.68650     1.63762
O     -1.32242    -0.07978     2.69825
H     -1.64047     0.82955     2.77247
O     -0.67763     0.01831     1.43558
H     -1.21124    -0.58825     0.86772
O     -0.42852     1.21021    -1.12257
H     -1.03231     1.41580    -0.37198
O     -0.67550     2.30598    -2.00278
H     -0.13265     2.96125    -1.52850
O      0.62076    -1.04687    -1.93980
H      0.34382    -0.15341    -1.63675
O      1.94335    -1.12377    -1.41344
H      1.81449    -1.60409    -0.56596
O      1.83207    -0.77184     1.48960
H      0.92347    -0.40181     1.39776
O      1.62428    -2.10974     1.02218
H      1.00418    -2.46860     1.71057
O     -1.83554    -1.60488    -0.30067
H     -2.15105    -1.34769    -1.19149
O     -0.94970    -2.69558    -0.60773
H     -0.27710    -2.23671    -1.15457
O     -0.98136    -3.91780     2.21302
H     -0.91405    -3.68578     1.27493
O     -0.11549    -2.95449     2.81201
H     -0.71512    -2.24906     3.09344
O     -2.19752    -0.41311    -2.67917
H     -1.75002     0.44746    -2.62126
O     -1.81027    -0.91789    -3.95788
H     -0.99005    -1.38325    -3.74570
