 32
-1213.3127401419274
O      2.37464     1.78431     1.82130
H      3.13815     2.06894     2.33371
O      1.52821     2.93597     1.89089
H      0.76818     2.55662     2.37720
O     -2.63266    -2.23352    -2.03426
H     -2.81448    -2.46840    -2.94902
O     -1.63260    -3.18148    -1.65040
H     -0.81827    -2.63640    -1.71308
O      0.15641     1.07275    -0.69322
H     -0.74603     0.66544    -0.73546
O     -0.13589     2.43124    -0.37105
H      0.66890     2.66813     0.11444
O     -0.63514     1.54114     2.68190
H     -0.34160     0.64691     2.41737
O     -1.68125     1.81985     1.75177
H     -1.18500     2.19195     0.99930
O      2.69343    -0.15733    -2.04010
H      3.49244    -0.24533    -1.51231
O      2.44494     1.25475    -2.00278
H      1.56256     1.24142    -1.58523
O      0.56393    -1.68663    -1.63456
H      1.32340    -1.10933    -1.87545
O      1.22826    -2.68757    -0.85540
H      0.76344    -2.55212    -0.00855
O     -0.21829    -1.91480     1.28824
H     -1.12142    -1.61502     1.05948
O      0.41250    -0.69517     1.67716
H      0.70642    -0.33323     0.82285
O     -2.43761    -0.52673     0.72197
H     -2.36033     0.31320     1.21770
O     -2.23597    -0.03560    -0.61116
H     -2.45716    -0.83699    -1.14402
