 40
-1516.6441460330589
O      1.85951     1.00789    -1.00109
H      1.12662     0.47299    -1.38595
O      3.02028     0.30602    -1.42611
H      2.94232    -0.52420    -0.91725
O      0.22180    -0.94776     1.26864
H     -0.42249    -0.21807     1.42116
O      1.31445    -0.61674     2.12214
H      1.46218     0.33029     1.91920
O     -1.96987     1.45661    -2.03687
H     -1.35478     2.21022    -1.89100
O     -2.65294     1.47315    -0.78271
H     -2.73328     0.52218    -0.58426
O     -0.83199    -3.32852     1.70928
H     -0.40698    -2.44841     1.58885
O      0.24633    -4.19801     1.37202
H      0.40010    -4.65808     2.20263
O     -1.50305     2.32786     1.45008
H     -1.82023     2.25268     0.52110
O     -1.50191     0.96282     1.84304
H     -2.41967     0.78006     2.08162
O      1.15071     3.15378     1.23346
H      0.35589     2.96901     1.75258
O      1.88594     1.94440     1.40899
H      2.04344     1.69519     0.47074
O     -0.13973     3.11591    -1.15239
H      0.42513     3.27816    -0.36819
O      0.71926     3.39618    -2.25409
H      1.29651     2.62058    -2.24969
O     -2.49086    -1.10219    -0.06194
H     -1.86737    -1.49290    -0.71790
O     -3.31206    -2.19387     0.31847
H     -2.68312    -2.73098     0.81976
O      1.61364    -2.69098    -0.39617
H      1.36464    -3.31020     0.31609
O      2.66404    -1.90293     0.15972
H      2.24542    -1.51757     0.94892
O     -0.47571    -1.65216    -1.69062
H      0.34372    -1.97083    -1.24779
O     -0.03992    -0.41386    -2.24582
H     -0.86896     0.09923    -2.34851
