 24
-909.9773299368205
O     -2.77040     0.01581     0.90471
H     -2.58002     0.90268     0.55408
O     -1.76421    -0.05188     1.91399
H     -2.28667    -0.11520     2.72061
O      1.71750    -1.72230    -1.37776
H      0.87628    -1.21529    -1.37274
O      2.65828    -0.65961    -1.49488
H      2.81266    -0.61703    -2.44447
O      1.99470     1.49313    -0.00889
H      2.13309     0.66007    -0.49665
O      1.01025     1.14997     0.97585
H      1.18287     0.20265     1.18249
O     -1.25133     2.24920     0.13692
H     -0.45864     1.87084     0.58464
O     -0.75969     2.59987    -1.15446
H      0.19222     2.68469    -1.00193
O      1.25679    -1.47581     1.40433
H      1.71754    -1.95190     0.69844
O     -0.06074    -2.04009     1.28193
H     -0.61176    -1.26302     1.47299
O     -0.47657    -0.20796    -1.28254
H     -0.84974     0.69409    -1.35339
O     -1.56269    -1.09723    -1.53396
H     -1.92241    -1.20112    -0.64104
