 36
-1364.9782955574283
O      0.78266     0.25383     2.86921
H     -0.15042    -0.02776     2.81502
O      0.65679     1.61930     2.45499
H      1.24447     1.64286     1.67718
O      2.24915    -1.05976     1.07671
H      1.89429    -0.66688     1.89886
O      1.01261    -1.52574     0.54359
H      1.08337    -1.31690    -0.41478
O     -1.38082    -2.96679     2.06463
H     -1.93412    -3.05572     2.84575
O     -0.10168    -2.67099     2.63333
H      0.35985    -2.36411     1.82887
O      0.91164    -1.08503    -2.09529
H      1.33811    -0.68341    -2.86988
O     -0.47136    -0.90431    -2.42235
H     -0.89821    -1.38741    -1.68784
O     -1.80160     0.26553     2.21889
H     -2.19083    -0.21064     1.45833
O     -1.91064     1.63583     1.81158
H     -1.01412     1.93064     2.06400
O     -0.70621     1.61267    -1.17052
H     -0.67141     1.07207    -1.97571
O     -2.10763     1.61742    -0.88895
H     -2.09226     1.78706     0.07215
O      2.08863     0.85231    -3.76692
H      2.44472     1.27954    -2.97211
O      0.96630     1.69755    -4.02121
H      1.21123     2.09883    -4.86221
O      2.30326     1.56353     0.31232
H      2.53414     0.61647     0.30437
O      2.05371     1.84602    -1.06223
H      1.07916     1.86946    -1.08658
O     -2.82613    -0.98576     0.06178
H     -2.72684    -0.29390    -0.61053
O     -1.81806    -1.92152    -0.33172
H     -1.61349    -2.33162     0.53866
