 20
-758.3024150625987
O     -1.30673    -1.82375     1.37953
H     -2.12860    -2.30325     1.24281
O     -0.63452    -2.08813     0.14820
H      0.27344    -1.80453     0.37679
O      1.78052    -0.91139     0.46347
H      1.92856    -0.59785    -0.45242
O      1.41611     0.31648     1.10229
H      2.22946     0.53970     1.56903
O     -1.32549    -0.11311    -1.62416
H     -1.03550    -0.83145    -1.03508
O     -0.68661     1.01970    -1.03083
H     -1.15033     1.12102    -0.17423
O      2.50955     1.39243    -2.01814
H      2.73763     1.42957    -2.95093
O      1.66524     0.24291    -1.98935
H      0.79032     0.64086    -1.77337
O     -1.31857     0.72364     2.29164
H     -1.28545    -0.17099     1.91888
O     -2.06709     1.39000     1.27198
H     -2.21805     2.24989     1.67552
