 40
-1516.641716573585
O     -0.07384     3.48016    -1.23801
H      0.78767     3.03793    -1.36897
O     -0.59427     3.46242    -2.56870
H     -1.09066     4.28555    -2.57000
O      1.21896    -2.86465     2.14521
H      1.60144    -3.44256     2.81068
O      0.09648    -3.62937     1.67679
H     -0.20805    -3.00752     0.98591
O     -1.42570    -0.60859     3.58651
H     -2.07456    -0.38531     2.90348
O     -0.21223    -0.44391     2.84046
H      0.13313    -1.35177     2.81262
O     -1.49345     2.33420     1.07098
H     -0.86293     2.83033     0.52163
O     -0.92498     2.42886     2.37638
H     -0.50272     1.56190     2.45850
O     -3.75111    -0.01266     0.24270
H     -3.50551     0.12844    -0.68540
O     -2.45391    -0.09831     0.81496
H     -2.19413     0.85340     0.89172
O     -0.73854    -1.94754    -1.39444
H      0.11424    -1.69088    -1.77365
O     -0.49146    -1.68430    -0.01538
H     -1.27279    -1.13908     0.25299
O      2.86135    -0.59327    -2.27202
H      2.86507    -1.10123    -1.42446
O      1.74518    -1.17832    -2.93408
H      2.16529    -1.81038    -3.52297
O      1.47192     1.29082    -0.05001
H      0.68219     0.84582    -0.41333
O      2.06630     1.83272    -1.22849
H      2.42164     1.02606    -1.66028
O      2.44922    -1.71318     0.05853
H      2.01067    -2.17118     0.80750
O      3.14566    -0.65954     0.73337
H      2.55918     0.09812     0.54049
O     -1.07703     0.82719    -1.48972
H     -1.19256     1.73625    -1.80951
O     -2.24378     0.15959    -2.01281
H     -1.89721    -0.74711    -1.94886
