 40
-1516.6450128020483
O      1.01215     1.89521     1.12839
H      0.91196     1.64983     0.18146
O      2.02437     0.97276     1.54936
H      1.48168     0.22827     1.87932
O      1.51536     0.65027    -1.08601
H      1.57042     0.87789    -2.03098
O      2.80462     0.07223    -0.81985
H      2.88523     0.37881     0.10221
O     -2.07615     1.71941     1.26090
H     -2.68678     0.96559     1.30594
O     -2.74366     2.72203     2.03226
H     -2.05237     2.89484     2.68348
O     -0.19153     2.58009     3.45548
H      0.25242     2.31840     2.62141
O     -0.32807     1.31995     4.11185
H      0.30880     1.37960     4.83184
O      0.45600    -0.27037    -3.67688
H      1.17130    -0.93687    -3.51231
O      1.22433     0.93535    -3.69946
H      1.35188     1.08882    -4.64075
O     -0.61200    -2.64912    -1.09307
H     -1.41032    -2.51859    -0.53173
O      0.36301    -1.95208    -0.31119
H      0.32183    -1.05213    -0.68914
O     -0.95978     1.66442    -1.17790
H     -1.38512     1.79764    -0.30960
O     -1.21133     0.27303    -1.37102
H     -0.90891     0.14801    -2.28521
O      0.50160    -1.14738     2.21105
H      0.41356    -1.55989     1.32162
O     -0.84969    -0.76336     2.49405
H     -0.71491     0.03961     3.04142
O      2.39901    -1.92091    -2.99200
H      2.66092    -1.78484    -2.06736
O      1.84534    -3.23397    -3.01379
H      0.99801    -3.10047    -2.56176
O     -3.08381    -0.74236     0.23012
H     -2.44726    -0.45335    -0.44960
O     -2.45078    -1.93245     0.70681
H     -1.93043    -1.57216     1.45086
