 32
-1213.3143145554382
O      2.96752     0.01112    -0.04429
H      2.38082    -0.72660    -0.33731
O      3.45262    -0.45736     1.20276
H      4.36392    -0.66198     0.97586
O     -1.77626    -3.29516    -0.21390
H     -2.16046    -4.01526     0.29421
O     -0.58768    -2.99632     0.51118
H     -0.86580    -2.21761     1.04479
O      1.28196    -1.73713    -1.09938
H      0.60204    -2.25531    -0.63256
O      0.54370    -1.05425    -2.10758
H      0.73315    -0.11916    -1.89153
O      0.19446     3.02324     1.55270
H      0.76718     2.87449     0.76403
O      0.74144     2.05796     2.44736
H      1.26971     2.59828     3.04226
O     -2.14954    -0.86483    -2.45668
H     -1.17947    -0.95631    -2.40344
O     -2.50663    -0.86291    -1.07574
H     -2.28446    -1.77582    -0.79545
O      0.75619     1.55645    -1.44662
H     -0.13073     1.64508    -1.03183
O      1.61804     2.25765    -0.54937
H      2.22474     1.53238    -0.29699
O      0.29244    -0.40385     1.31661
H      0.49414     0.40218     1.81844
O     -1.06589    -0.67228     1.68574
H     -1.53676     0.11048     1.31894
O     -1.78020     1.61719    -0.64144
H     -2.13535     0.71945    -0.86348
O     -2.05712     1.65909     0.76515
H     -1.44048     2.35546     1.05162
