 24
-909.9746656125706
O      0.54796    -1.51475    -1.42961
H      0.51782    -0.54265    -1.35208
O     -0.09546    -1.93345    -0.22293
H      0.66364    -2.10732     0.35566
O     -2.23237     0.21005    -2.44901
H     -2.69530     0.15350    -1.59897
O     -2.13412    -1.15448    -2.86090
H     -1.23862    -1.39412    -2.58053
O      2.43946    -1.39382     2.52253
H      3.36681    -1.62492     2.62981
O      2.36653    -1.25237     1.09439
H      2.07005    -0.32377     1.03974
O     -1.28718     0.01995     1.14358
H     -1.08976    -0.72007     0.53556
O     -2.21495     0.80863     0.39118
H     -1.61392     1.47778     0.02087
O      1.41863     1.59509     2.70362
H      1.79671     0.80552     3.11273
O      1.11998     1.09913     1.40592
H      0.20527     0.74570     1.51428
O     -0.27956     2.21727    -0.83244
H      0.44085     2.19813    -0.18877
O      0.10765     1.13927    -1.68637
H     -0.75348     0.93906    -2.11778
