 40
-1516.6437889033614
O      3.83353     1.74245    -0.42721
H      3.45906     0.87765    -0.65334
O      3.44970     2.50679    -1.56193
H      4.29566     2.72038    -1.96796
O      1.54818     1.99484     1.23284
H      2.40426     2.36571     0.97207
O      1.92325     0.73112     1.80024
H      1.93667     0.15870     0.99952
O     -1.51428     0.97326     3.10584
H     -1.67262     1.15312     2.15758
O     -0.53740    -0.06817     3.02686
H      0.30279     0.42079     2.99250
O     -3.76469    -1.10049     2.77456
H     -3.15018    -0.44450     3.13390
O     -3.14340    -1.36786     1.52174
H     -2.65123    -2.19169     1.65528
O      0.21631    -1.95995     1.29293
H     -0.25648    -1.34476     1.89349
O     -0.80478    -2.75601     0.70354
H     -1.01588    -2.23333    -0.08577
O     -3.47300    -1.46862    -1.11681
H     -3.68253    -1.42473    -0.16980
O     -2.21606    -0.78965    -1.03801
H     -1.95976    -0.64715    -1.96101
O      1.36560     1.31055    -2.74525
H      2.09595     1.82326    -2.34436
O      0.26866     2.21336    -2.61099
H     -0.14327     1.87557    -1.78940
O     -1.77339     1.32908     0.44483
H     -2.16912     0.50355     0.10221
O     -0.53685     1.25991    -0.26439
H      0.12663     1.60664     0.37869
O      2.54423    -1.81211     0.05764
H      1.77211    -2.06762     0.60475
O      2.02797    -0.60160    -0.49007
H      1.37722    -0.93082    -1.15231
O      0.49006    -1.69273    -2.36297
H      0.85977    -2.30758    -3.00500
O     -0.23721    -0.76604    -3.16583
H      0.36858     0.01177    -3.12785
