 40
-1516.644428194184
O     -0.45511     2.03110    -0.00938
H      0.11025     2.75342    -0.35050
O     -0.03759     0.93570    -0.82539
H      0.53216     0.45370    -0.18134
O      1.01822    -0.26702     1.25582
H      0.29230    -0.25292     1.92498
O      1.29347    -1.66604     1.12873
H      1.52789    -1.67555     0.17056
O      1.95575     4.36246    -1.53974
H      1.88301     3.53179    -2.05956
O      0.74307     4.30167    -0.79210
H      0.19311     4.94969    -1.24610
O     -4.53894    -2.97741     0.04210
H     -5.45570    -2.82122     0.28331
O     -3.87738    -2.03328     0.87285
H     -3.43272    -1.46093     0.21368
O     -0.89820    -3.19244     1.24411
H     -0.10531    -2.63866     1.40512
O     -1.75226    -2.85536     2.34208
H     -2.60587    -2.73849     1.87645
O      1.81541    -1.18321    -1.38652
H      2.30493    -0.40115    -1.72218
O      0.83584    -1.38602    -2.41350
H      0.05634    -1.68349    -1.89772
O      2.69047     2.21571     0.42259
H      2.91878     3.10214     0.73813
O      3.60409     1.36023     1.11428
H      2.97406     0.73035     1.48895
O      2.82532     1.23232    -2.05017
H      2.90219     1.66829    -1.17732
O      1.69160     1.91818    -2.61092
H      0.94938     1.46094    -2.16401
O     -1.10964    -0.30406     2.85085
H     -1.39386    -1.24233     2.89520
O     -2.17840     0.25962     2.08019
H     -1.71251     0.91376     1.54139
O     -2.12830    -0.82543    -0.78380
H     -1.44355    -0.13797    -0.91200
O     -1.40718    -2.02416    -1.11263
H     -1.32129    -2.46923    -0.24059
