 16
-606.6383840815605
O     -2.08809    -0.47660     1.12444
H     -2.96939    -0.29859     1.46530
O     -1.51673     0.83275     1.12065
H     -0.59600     0.61629     1.34715
O      1.79583    -0.55287     1.23906
H      2.07217    -0.04608     0.46485
O      1.02084     0.44794     1.90363
H      1.34634     0.38318     2.80611
O      0.64640     1.38788    -1.19800
H     -0.13977     0.83409    -1.38587
O      1.68226     0.40985    -1.38029
H      2.08240     0.70242    -2.20431
O     -1.29180    -0.49437    -1.45417
H     -1.63714    -0.57201    -0.54345
O     -0.56128    -1.71617    -1.61157
H      0.33262    -1.42672    -1.38006
