 24
-909.9772701089602
O     -2.70791     0.01668     1.38740
H     -2.22311    -0.80956     1.23641
O     -3.44213     0.10269     0.16724
H     -4.26659     0.49860     0.46487
O      2.16992    -1.39707    -0.05943
H      1.49836    -1.93911     0.37307
O      1.59633    -1.22057    -1.35259
H      1.89966    -0.31825    -1.56429
O      2.27614     2.51236    -1.31371
H      2.25819     2.19996    -0.39690
O      1.82761     1.35257    -2.01586
H      0.89834     1.55353    -2.21376
O     -0.87693     0.31624    -1.90376
H     -0.33836    -0.38325    -1.50032
O     -1.16394     1.15603    -0.78203
H     -2.06664     0.87068    -0.52929
O     -1.18897    -2.21793     1.18080
H     -1.49574    -2.97483     1.69050
O      0.04056    -1.92300     1.84741
H      0.05274    -0.94089     1.81299
O      0.32611     0.66244     1.36839
H     -0.08297     0.97226     0.53182
O      1.71446     0.93689     1.16124
H      2.00914     0.09602     0.76010
