 32
-1213.3121900049066
O      0.75417    -2.37974     1.11497
H      1.39631    -2.18558     1.81158
O     -0.42525    -1.83818     1.73209
H     -1.12374    -2.37047     1.30866
O     -0.84131    -1.34295    -2.11052
H     -0.20314    -1.97864    -2.45147
O     -1.38817    -0.76093    -3.29633
H     -1.17563     0.17567    -3.11592
O     -2.61844    -1.57707    -0.13840
H     -1.96100    -1.49759    -0.86154
O     -2.40203    -2.92401     0.27569
H     -3.30182    -3.21352     0.45103
O     -0.78198     1.60314    -2.16958
H     -1.08327     1.47207    -1.25262
O      0.62312     1.75260    -1.99563
H      0.90320     0.83973    -1.79230
O      0.84221     3.13111     0.29944
H      0.83718     2.79328    -0.61840
O      2.12383     2.67314     0.75633
H      1.86917     2.24806     1.58596
O      2.80131     0.05067    -0.18604
H      2.65044     1.00919    -0.20540
O      1.68277    -0.43256    -0.92645
H      1.20056    -0.96632    -0.26978
O      2.12738    -0.34446     2.42924
H      2.54496    -0.20134     1.56297
O      1.02873     0.58080     2.34965
H      0.26223    -0.01286     2.28913
O     -1.46937     1.38513     0.38624
H     -0.83737     1.99074     0.80491
O     -2.03713     0.71711     1.51064
H     -2.48183    -0.01122     1.05866
