 40
-1516.6422698710458
O      3.36663     1.19534     1.24971
H      2.53463     0.71245     1.07990
O      2.82411     2.28372     2.01077
H      3.61982     2.67297     2.38399
O      1.46098    -1.32707     0.44746
H      1.20234    -1.47899    -0.48511
O      1.04038     0.02454     0.65213
H      0.06518    -0.03023     0.73049
O     -1.64289     2.99982    -1.94055
H     -1.96107     3.33008    -1.08012
O     -0.74318     4.03537    -2.33660
H      0.07380     3.73299    -1.90127
O     -1.47036    -0.30681    -1.78817
H     -1.71354    -0.26364    -0.84626
O     -0.42618     0.67216    -1.81597
H     -0.93996     1.49576    -1.99793
O     -2.36868     3.66344     0.56754
H     -2.77329     4.21785     1.24085
O     -1.50084     2.84089     1.34166
H     -0.61691     3.09792     0.98968
O      0.93332     3.25717     0.40020
H      1.70686     2.92417     0.91027
O      1.27169     2.90552    -0.93883
H      0.95755     1.98550    -0.99346
O     -1.44616    -0.37650     2.08519
H     -1.47132    -1.32129     1.81922
O     -1.63992     0.22633     0.80695
H     -1.74295     1.16899     1.04695
O     -1.29574    -2.82696     1.08560
H     -1.13914    -2.99991     0.13572
O     -0.03054    -3.20502     1.63607
H      0.54393    -2.47578     1.32534
O      0.38601    -5.53712     0.31800
H      0.33509    -4.75090     0.89465
O      1.36907    -5.09937    -0.62551
H      1.74759    -5.93761    -0.90825
O     -0.42261    -3.30432    -1.39325
H      0.25886    -4.00389    -1.30745
O      0.36586    -2.19836    -1.85275
H     -0.32655    -1.55212    -2.11026
