 40
-1516.6413886963305
O      0.66339     2.05443    -2.52199
H      0.67780     1.27625    -3.10352
O      2.02881     2.20070    -2.10553
H      2.21900     1.33239    -1.69660
O      1.10952    -2.70435     1.29370
H      0.80081    -3.53088     1.67678
O      1.08395    -1.84775     2.43295
H      0.35093    -1.22293     2.21107
O     -0.83981    -0.13989     1.78301
H     -1.79965    -0.26686     1.60649
O     -0.82717     1.06731     2.54066
H     -0.45704     1.67078     1.88221
O      1.31683     1.87332     0.80235
H      1.88976     1.35390     1.39921
O      1.99892     3.12635     0.75164
H      2.02822     3.24753    -0.20931
O     -3.50799    -0.31684     1.39814
H     -4.16807     0.20931     1.86273
O     -3.97265    -0.31694     0.05407
H     -3.42862     0.39049    -0.35719
O     -1.14146     1.45237    -0.63678
H     -0.54311     1.90416    -1.26986
O     -2.36506     1.35576    -1.37123
H     -2.09880     0.71492    -2.06443
O     -0.11606    -0.73728    -3.18338
H      0.29127    -0.79704    -2.29335
O     -1.51201    -0.66604    -2.88228
H     -1.64763    -1.43486    -2.29347
O      0.99057    -0.59465    -0.80555
H      0.60687     0.22363    -0.41142
O      2.35749    -0.23018    -0.95046
H      2.72204    -0.47959    -0.07879
O     -1.52244    -2.71131     0.30221
H     -0.65529    -2.29822     0.17827
O     -2.16902    -2.44580    -0.94368
H     -2.96563    -1.98607    -0.63439
O      3.02819     0.51609     2.30513
H      3.88800     0.82603     2.60414
O      3.35060    -0.71820     1.66062
H      2.66369    -1.29131     2.06932
