 40
-1516.6478130619591
O     -1.65696     0.68101     2.14920
H     -1.76328     1.65252     2.02907
O     -0.28407     0.54051     1.78963
H     -0.34212     0.02848     0.95718
O      1.59441     0.27238    -1.17495
H      1.43052    -0.54638    -1.69719
O      0.25371     0.73360    -1.02496
H      0.39051     1.65732    -0.74802
O      1.29910     3.22723     1.18470
H      1.91246     2.48278     1.38723
O      1.37808     3.22300    -0.24967
H      2.13718     3.78974    -0.42755
O     -1.93561     3.05063    -0.04443
H     -2.64165     2.38041    -0.05532
O     -1.69310     3.20860     1.35860
H     -0.74705     3.41168     1.35021
O     -3.54714     0.89003    -0.52373
H     -3.20635     0.72970    -1.42368
O     -3.08458    -0.31593     0.09571
H     -2.67887     0.01164     0.92463
O      1.08946    -3.09478    -1.82527
H      0.34732    -3.23953    -1.20808
O      0.72874    -1.87119    -2.48294
H     -0.25523    -1.86199    -2.48806
O     -0.40241    -2.13882     0.83070
H      0.58667    -2.19388     0.89165
O     -0.73272    -3.32011     0.11133
H     -0.80982    -3.97884     0.80865
O     -1.87303    -1.43600    -2.09887
H     -2.27546    -1.43109    -1.21195
O     -1.86405    -0.03754    -2.40497
H     -1.04757     0.26433    -1.95368
O      2.22854    -2.28085     1.09857
H      2.49201    -1.46681     1.58044
O      2.99815    -2.14805    -0.10128
H      2.39840    -2.54904    -0.75809
O      2.80556     1.04871     1.10649
H      2.49551     0.61283     0.28644
O      2.32730     0.18988     2.14011
H      1.37042     0.38678     2.15848
