 36
-1364.978726001979
O      0.63410    -1.70387    -1.65110
H      0.36027    -2.54658    -2.04276
O      0.77269    -0.87936    -2.81082
H      0.00596    -0.28778    -2.71108
O     -1.66896    -2.67410    -2.80619
H     -2.40514    -3.07524    -3.27907
O     -2.34009    -2.14843    -1.66268
H     -1.87614    -2.60945    -0.94404
O      1.18025     2.59528     2.56352
H      1.14892     3.06024     1.70771
O      2.19139     1.61452     2.31340
H      1.69509     0.78613     2.47755
O      1.09630    -1.41138     1.48469
H      1.37057    -0.79762     0.77270
O      0.58846    -0.51559     2.46390
H     -0.28399    -0.27090     2.08739
O     -1.99568     0.49846    -1.16090
H     -2.07631    -0.42631    -1.46672
O     -0.95906     0.99895    -2.00760
H     -0.65288     1.76239    -1.48051
O     -1.53294     2.02309     1.81623
H     -0.77969     2.03940     2.42737
O     -1.58839     0.63833     1.47293
H     -1.76628     0.66730     0.50623
O      0.82530     3.54145     0.05447
H      1.41985     2.91922    -0.39822
O     -0.44929     3.08663    -0.39466
H     -0.90022     2.87103     0.44370
O      2.65594     1.50627    -0.32360
H      2.78485     1.57017     0.64126
O      1.69753     0.45117    -0.32314
H      1.70538     0.10951    -1.23435
O     -0.10271    -4.29114     0.24829
H     -0.36922    -4.92427     0.91921
O     -0.79440    -3.12263     0.67974
H     -0.04892    -2.56789     1.00697
