 20
-758.3084802405692
O     -2.03941    -2.05482    -1.49843
H     -1.21088    -1.54353    -1.42487
O     -2.31027    -2.35831    -0.12961
H     -1.86957    -3.20481    -0.00254
O      1.70444     0.56986     1.44446
H      1.58411     1.38550     0.90960
O      2.30649    -0.28734     0.47865
H      2.71395    -0.94311     1.05137
O      1.35754     2.61261    -1.27145
H      0.71551     1.88397    -1.40041
O      1.23527     2.81419     0.13813
H      0.58150     3.51643     0.20299
O      0.26652    -0.62630    -1.26704
H      0.95425    -0.49907    -0.58675
O     -0.43824     0.61283    -1.21284
H     -0.88780     0.51295    -0.34347
O     -1.53273    -0.12992     1.06236
H     -1.93646    -0.94862     0.70155
O     -0.59644    -0.71323     1.97850
H      0.19791    -0.19246     1.76698
