 36
-1364.9798393220228
O      3.26890     1.46099     1.79069
H      3.98555     1.57540     2.42293
O      2.32262     0.72252     2.56363
H      1.48960     1.08044     2.20112
O      0.73375    -2.03161     2.90866
H     -0.06874    -1.84996     2.40342
O      1.73246    -1.99969     1.88677
H      2.22056    -1.19191     2.10973
O     -0.20751    -0.20141    -2.41993
H     -0.96605     0.22554    -2.85623
O      0.27431     0.93710    -1.68323
H      1.02548     0.56743    -1.16394
O      0.18692     1.47144     1.17724
H     -0.32003     0.65001     0.98271
O     -0.85872     2.42464     1.30769
H     -0.52880     3.11236     0.72309
O     -1.92444     2.31516    -1.62805
H     -1.03120     1.94807    -1.47188
O     -2.25140     1.53181    -2.79180
H     -3.00830     1.03212    -2.42823
O     -3.80876     0.19669    -1.12819
H     -3.22553    -0.56400    -0.96173
O     -3.48943     0.96859     0.04893
H     -2.95557     1.67833    -0.35537
O      1.13896    -2.32651    -1.48723
H      0.58571    -1.61571    -1.86048
O      0.40247    -2.67307    -0.31401
H      1.03100    -2.43429     0.40387
O      3.28740    -0.88311    -0.76150
H      2.66789    -1.55812    -1.09089
O      2.31944     0.04498    -0.25448
H      2.84085     0.55598     0.39171
O     -1.43996    -0.60084     0.97338
H     -2.24086    -0.07172     1.13082
O     -1.85277    -1.33998    -0.18318
H     -1.06156    -1.91957    -0.30190
