 32
-1213.3113119171323
O      3.29448    -0.21306     3.47181
H      3.63889    -0.75992     4.18318
O      1.96515    -0.70631     3.37189
H      1.95801    -1.08408     2.46826
O     -0.73419    -1.16755    -0.84289
H     -0.98730    -0.22931    -0.96612
O     -1.89322    -1.79959    -1.38282
H     -1.58813    -1.91521    -2.29910
O     -0.55770    -1.01527    -3.63244
H      0.27784    -0.85131    -3.15135
O     -0.94016     0.34343    -3.89330
H     -1.57408     0.51752    -3.18746
O      1.39590    -1.20353     0.79257
H      0.58443    -1.30305     0.24979
O      1.95848     0.01461     0.28377
H      1.51718     0.68780     0.85058
O      1.44032     0.10952    -2.29028
H      1.74676     0.04245    -1.35527
O      1.09607     1.50223    -2.37364
H      0.63086     1.48808    -3.22053
O     -1.83144     1.81024     0.25446
H     -2.27968     0.99688     0.59166
O     -1.45235     1.35376    -1.04770
H     -0.55168     1.70557    -1.14654
O      0.43154     1.68729     1.69543
H     -0.39543     1.87138     1.20585
O     -0.11833     0.97324     2.81491
H      0.67766     0.52160     3.15742
O     -1.57947    -1.10161     1.88936
H     -1.16496    -0.28959     2.23759
O     -2.63393    -0.59066     1.06041
H     -2.59431    -1.23170     0.33361
