 36
-1364.9842505242482
O     -1.30807     2.66761    -1.35925
H     -1.87646     2.08617    -0.82031
O     -0.40994     3.15449    -0.36643
H      0.38947     2.64968    -0.59486
O     -2.50851     0.83575     0.19812
H     -1.76897     0.71787     0.82158
O     -3.04425    -0.47602     0.07579
H     -3.01165    -0.60441    -0.89553
O      3.46410     0.60592     1.97978
H      2.57927     0.74694     2.38408
O      3.71554    -0.73837     2.37346
H      4.24332    -0.63359     3.17129
O      1.59905     0.35242    -0.22543
H      2.49995     0.45238     0.12663
O      1.53870     1.46097    -1.13058
H      1.14108     1.04897    -1.92737
O      0.03336     0.92131     1.84772
H      0.57669     0.71913     1.05891
O      0.95096     0.64479     2.91003
H      0.74900    -0.29468     3.10494
O     -0.39131    -1.90012    -0.11316
H      0.48802    -1.94839     0.30651
O     -1.23014    -2.16283     1.01956
H     -1.99925    -1.60736     0.76888
O      0.24475     0.47528    -3.28265
H     -0.05215    -0.45108    -3.20422
O     -1.02470     1.10206    -3.48207
H     -1.01279     1.79857    -2.79447
O      1.50995    -2.08798     1.74674
H      2.32677    -1.65530     2.06209
O      0.68267    -2.01175     2.91398
H     -0.17297    -2.18967     2.48614
O     -2.53262    -0.85084    -2.53078
H     -2.26840    -0.03474    -2.99505
O     -1.28457    -1.54911    -2.59825
H     -1.07161    -1.68615    -1.65368
