 40
-1516.6422951545642
O      2.37289     1.83967    -0.56559
H      2.31316     0.96203    -0.98569
O      2.33414     1.47137     0.81395
H      1.47574     1.84513     1.10683
O     -0.34851    -1.83720    -1.07490
H     -0.00974    -2.73809    -0.97280
O     -0.88157    -1.61831     0.23362
H     -1.65059    -1.03931     0.02864
O     -2.78542     0.24041    -0.12563
H     -3.03504     0.98255    -0.71897
O     -2.65440     0.92845     1.12584
H     -2.71386     0.19246     1.76757
O     -0.15877     1.87866     1.59444
H     -1.06900     1.56702     1.40069
O      0.11106     1.34571     2.89088
H      0.54196     0.49557     2.65952
O     -3.06271     2.43021    -1.63112
H     -3.66727     3.07367    -2.01213
O     -2.61400     1.71579    -2.78764
H     -1.65053     1.78250    -2.64196
O      0.05627     1.77107    -2.17676
H      0.63267     2.30174    -1.60324
O      0.84267     1.65059    -3.37036
H      1.25728     0.79064    -3.21819
O      1.81788    -0.47983    -1.70947
H      0.91549    -0.80156    -1.49561
O      2.21051    -1.39918    -2.71818
H      2.46723    -2.14568    -2.16000
O      0.94268    -1.03651     2.07696
H      0.23624    -1.22528     1.42500
O      2.10416    -1.13269     1.25534
H      2.27923    -0.18245     1.05653
O      1.65804    -3.49844     0.01638
H      1.93744    -2.69603     0.50795
O      2.65755    -3.58496    -0.99840
H      3.15071    -4.36544    -0.73024
O     -2.16615     0.24261     3.89665
H     -1.35521     0.73950     3.67811
O     -2.02561    -0.82754     2.95935
H     -2.11218    -1.60286     3.52388
