 32
-1213.3066665851165
O      3.41359     1.75175     0.93945
H      2.61927     2.29928     1.05849
O      4.13145     1.97732     2.15265
H      4.88006     2.48461     1.82600
O     -0.20870    -2.79664    -1.90650
H     -0.30467    -3.73099    -2.11233
O      0.48676    -2.85438    -0.66891
H     -0.16191    -2.46843    -0.04242
O     -3.44203    -0.83211    -1.41890
H     -4.27506    -1.07070    -1.83530
O     -2.85876    -2.10926    -1.18153
H     -2.00087    -1.99260    -1.61425
O      0.65566     2.40084     0.58864
H      0.69634     1.97988    -0.30257
O     -0.10913     3.57353     0.31320
H     -0.99170     3.26570     0.55693
O      2.19056    -0.64939     0.70265
H      2.75481     0.14078     0.80223
O      2.32019    -0.89048    -0.70319
H      1.84149    -1.73831    -0.76853
O      0.60651     0.98838    -1.65807
H      1.23871     0.26280    -1.48790
O     -0.64659     0.29745    -1.70647
H     -1.15522     0.74033    -1.00690
O     -0.99820    -1.62613     1.21323
H     -1.91693    -1.35593     1.35551
O     -0.32802    -0.40993     1.57985
H      0.58381    -0.54336     1.24592
O     -2.10184     1.30946     0.79354
H     -1.32886     0.92478     1.25190
O     -3.04309     0.25374     1.02475
H     -3.24773    -0.01965     0.11439
