 20
-758.2992447739863
O     -2.08381    -1.74544     2.04833
H     -1.82380    -2.14717     2.88200
O     -1.06611    -0.75341     1.90322
H     -0.62523    -1.05345     1.08151
O      1.56337     1.55502     0.34660
H      1.85289     0.64335     0.19826
O      0.54655     1.64177    -0.66283
H     -0.26009     1.72144    -0.11206
O     -0.02967    -1.39307    -0.51879
H     -0.63170    -1.72808    -1.19708
O      0.96552    -2.41822    -0.42803
H      1.67863    -2.00199    -0.93506
O      2.72198    -0.28613    -1.48107
H      3.43931     0.33676    -1.63652
O      1.78457     0.05651    -2.51303
H      1.19425     0.64238    -2.00045
O     -1.60116     1.79948     0.98448
H     -1.60305     0.95402     1.46893
O     -2.80386     1.70037     0.22082
H     -3.26232     2.49194     0.51659
