 16
-606.636729922069
O     -2.22004    -0.25046     1.09714
H     -2.94683    -0.66875     1.56879
O     -1.20384    -0.23205     2.10997
H     -0.58641     0.41057     1.70951
O      0.52056     1.42141     0.89645
H      0.82698     1.22004    -0.01370
O      1.58649     0.87123     1.67360
H      1.61343     1.50727     2.39248
O      1.22345     0.70523    -1.59455
H      0.55926     0.09375    -1.95510
O      2.39907    -0.10738    -1.52000
H      2.29307    -0.53732    -0.66329
O     -0.59415    -1.34831    -0.71922
H     -1.20527    -0.95019    -0.06347
O     -1.09599    -0.78936    -1.94069
H     -1.24209    -1.58693    -2.45823
