 36
-1364.9776291088726
O      2.07901    -0.12764    -2.61957
H      1.10287    -0.09697    -2.55147
O      2.46239     1.14865    -2.10243
H      3.13864     0.84473    -1.47054
O     -1.50921     1.59636     2.51962
H     -0.61672     1.26110     2.68442
O     -1.75999     0.96429     1.27485
H     -1.20568     1.47351     0.64477
O     -2.53842    -2.07170    -0.07061
H     -3.45793    -1.75949    -0.06720
O     -2.18687    -2.05039     1.31209
H     -1.81439    -1.15950     1.40370
O      1.23054     2.61567     0.09408
H      1.31598     2.24550    -0.80235
O     -0.17702     2.78224     0.19583
H     -0.24836     3.66960     0.55841
O     -1.00486     0.67124    -1.42013
H     -1.97429     0.55926    -1.44906
O     -0.52730    -0.46554    -2.12979
H     -0.41075    -1.11048    -1.41046
O     -3.67557     0.73974    -1.12252
H     -4.18795     1.54651    -1.23472
O     -4.07757     0.28960     0.17156
H     -3.29259     0.54655     0.69614
O      2.22036     0.66615     1.70854
H      1.88545     1.44919     1.23981
O      0.99066     0.06319     2.11217
H      1.08178    -0.84712     1.76065
O      3.66985    -0.38308    -0.28933
H      3.16431    -0.16580     0.51856
O      3.08800    -1.62629    -0.68994
H      2.66120    -1.34879    -1.52204
O      0.25832    -2.52565    -0.08295
H     -0.51836    -2.89595     0.36311
O      1.19141    -2.42231     1.00078
H      2.01767    -2.36977     0.48315
