 24
-909.979334059896
O     -1.18966    -0.30473     1.24655
H     -2.04349    -0.62939     0.92408
O     -1.31258     1.10220     0.98989
H     -0.41128     1.32819     0.68518
O     -0.95203    -1.17258    -1.70045
H     -0.11203    -1.30851    -1.21288
O     -0.89939     0.22811    -2.02481
H     -1.76221     0.51904    -1.69105
O      3.47639     0.01329     1.54495
H      2.69419    -0.56956     1.47275
O      2.83112     1.20016     2.02907
H      3.53629     1.61262     2.53621
O     -3.50194    -1.11328    -0.46574
H     -2.80814    -1.50831    -1.01439
O     -3.62272     0.15895    -1.11466
H     -4.48369     0.08525    -1.54143
O      1.39753    -1.48534    -0.41379
H      1.72976    -0.59838    -0.64709
O      1.22952    -1.34183     0.99627
H      0.33920    -0.93233     1.05467
O      1.43110     1.10413    -1.04879
H      0.54056     0.94852    -1.42464
O      1.09635     1.85169     0.11922
H      1.81716     1.60875     0.73496
