 32
-1213.3148456195725
O     -1.02149    -2.13994    -1.29304
H     -0.40574    -2.46748    -0.60376
O     -1.92859    -1.37825    -0.49045
H     -2.53618    -1.02595    -1.16033
O      1.84179     0.53694     2.17533
H      0.92795     0.30149     1.90000
O      1.83080     1.93967     1.91360
H      2.76924     2.12295     1.81276
O     -2.99646     1.66427    -1.39449
H     -3.61485     2.22871    -1.87046
O     -2.81821     0.58564    -2.29832
H     -1.87887     0.68230    -2.53188
O     -0.11704     0.02175    -2.56813
H     -0.29439    -0.87487    -2.22211
O      0.97081     0.41691    -1.73195
H      0.57108     1.08808    -1.14484
O      0.02717     2.29190    -0.04520
H      0.59052     2.29493     0.75458
O     -1.27014     2.46576     0.50884
H     -1.82971     2.15507    -0.21938
O      3.48032    -0.46563     0.25055
H      2.92502    -0.38375     1.04036
O      2.67784    -1.30120    -0.58509
H      2.16436    -0.65261    -1.10368
O      0.98834    -2.44900     1.92660
H      0.20368    -1.90760     2.07455
O      0.82099    -2.81113     0.55676
H      1.62366    -2.40722     0.15617
O     -0.60802    -0.04043     1.38423
H     -1.10664    -0.49188     0.66610
O     -1.65669     0.45597     2.20414
H     -1.67641     1.36744     1.87130
