 40
-1516.6419550397927
O     -0.81760     2.04429     1.02622
H     -1.57443     1.44175     1.20551
O     -0.37509     1.47241    -0.20623
H     -0.91552     1.93067    -0.87310
O      2.77267    -1.76972    -0.16515
H      1.97817    -2.12979     0.27253
O      2.20175    -1.23232    -1.36121
H      2.69673    -1.68969    -2.05155
O      2.99728     1.15886     0.12289
H      3.19862     0.32065    -0.32198
O      2.18972     1.81225    -0.86334
H      1.27939     1.64609    -0.54434
O     -0.81786    -0.77470     3.79490
H     -0.07958    -0.14982     3.66091
O     -0.12133    -2.02085     3.87554
H     -0.56389    -2.43286     4.62252
O     -2.77012     0.27355     1.01385
H     -2.70610    -0.18887     0.15060
O     -3.25958    -0.74948     1.87135
H     -2.47426    -0.93261     2.40371
O      0.93382     1.13495     2.90455
H      0.36800     1.54927     2.21878
O      1.59126     0.11160     2.15459
H      2.18223     0.62063     1.55148
O     -1.30593     2.18104    -2.80315
H     -0.47798     1.88245    -3.23697
O     -2.22252     1.19761    -3.27747
H     -2.88078     1.74436    -3.71516
O     -0.98324    -1.12852    -1.52187
H     -0.71053    -1.26131    -0.58497
O     -2.36119    -0.75446    -1.42287
H     -2.41601    -0.10352    -2.14406
O      0.57165    -2.59609     1.32466
H      0.41741    -2.61140     2.28371
O     -0.21414    -1.43452     1.03024
H      0.38843    -0.73304     1.37119
O      0.81354    -0.16544    -3.80986
H      0.21568    -0.39850    -3.08151
O      1.08170     1.20665    -3.56028
H      1.70302     1.19599    -2.81353
