 40
-1516.6409051122916
O      2.72125     2.33158     0.36294
H      3.40870     2.59193     0.98538
O      1.83030     3.44927     0.43823
H      1.09499     3.06808     0.97498
O      0.10294    -0.40747     1.74401
H     -0.23879    -1.22319     1.30953
O      1.42936    -0.32445     1.22043
H      1.28904    -0.04785     0.28982
O     -2.98056     1.06097    -2.66616
H     -3.46176     0.92793    -3.48793
O     -1.70194     1.47315    -3.13256
H     -1.12845     0.74927    -2.79278
O     -1.32096     2.05552     0.76316
H     -1.04389     2.56589    -0.02279
O     -0.18761     2.18896     1.63778
H      0.00406     1.24050     1.81247
O     -0.71089     3.40377    -1.51807
H     -1.23038     2.93942    -2.19671
O      0.61089     3.03621    -1.94869
H      1.14437     3.45495    -1.24621
O     -0.07398    -0.26961    -2.03303
H     -0.12080    -1.13460    -1.55995
O      1.03097     0.37057    -1.39036
H      0.91274     1.30416    -1.65340
O      0.79986    -3.27925     2.79107
H     -0.05032    -3.73654     2.72766
O      0.61576    -2.37249     3.88531
H      0.60929    -1.52839     3.41042
O     -0.21050    -2.61932    -0.80372
H      0.62231    -2.98223    -0.44129
O     -0.99439    -2.44519     0.38633
H     -1.76105    -1.95676     0.00189
O      2.93588    -2.85927     0.77081
H      2.47681    -2.96253     1.61817
O      2.11207    -3.69755    -0.03490
H      2.75188    -4.13739    -0.60307
O     -2.67392    -0.81208    -0.75816
H     -2.85732    -0.08734    -1.39320
O     -3.16173    -0.30751     0.47534
H     -2.44392     0.29362     0.72783
