 20
-758.3054254182574
O      1.22650    -3.04668    -0.21964
H      1.39328    -2.42928     0.50401
O      1.60063    -2.22786    -1.32908
H      1.85144    -2.88880    -1.98140
O      0.52488    -1.05849     1.79380
H     -0.12413    -0.75525     1.13587
O      1.48557    -0.00519     1.76667
H      1.36316     0.41486     2.62506
O      1.04910     1.47230    -0.44452
H      1.32669     0.94072     0.32319
O      0.36347     2.55684     0.18632
H     -0.50400     2.15565     0.38304
O     -0.71221    -0.98145    -0.79524
H      0.05275    -1.45838    -1.16680
O     -0.85153     0.11890    -1.70372
H     -0.09210     0.68113    -1.42400
O     -2.04933     1.58978     0.94545
H     -2.61256     2.22551     1.39779
O     -2.81769     1.34413    -0.24250
H     -2.16694     0.84352    -0.77195
