 16
-606.6320755497254
O     -2.63336    -0.66795     0.26441
H     -2.91831    -0.66305     1.18277
O     -2.03716     0.63408     0.15439
H     -1.17119     0.40996    -0.23240
O      0.41684     0.28370    -0.93025
H      0.83670     1.15303    -0.97900
O      1.17119    -0.30407     0.14169
H      0.77625    -1.18820     0.14348
O      1.61142     2.78909    -0.21580
H      1.93171     2.47328     0.63641
O      2.84081     3.11071    -0.87761
H      2.72512     4.05753    -1.01367
O     -0.69289    -2.50229    -0.02372
H     -1.46305    -1.89775    -0.01324
O     -0.96722    -3.30513     1.12773
H     -1.13002    -4.15589     0.71017
