 20
-758.3101618517879
O     -0.75525    -0.68730     1.93108
H     -1.64615    -0.60320     1.56259
O     -0.25825    -1.69302     1.03307
H      0.69961    -1.50375     0.98387
O      1.82127    -1.44991    -0.90807
H      1.70096    -0.49354    -1.11611
O      2.29538    -1.34696     0.43713
H      3.03759    -1.95789     0.41886
O      0.10460     1.76140     1.16406
H     -0.10366     0.88427     1.54503
O     -1.21206     2.28791     0.96923
H     -1.15448     3.10815     1.46742
O      0.19101     1.17476    -2.15194
H     -0.31504     0.36697    -1.94163
O      1.27655     1.10116    -1.22460
H      0.88764     1.47965    -0.41470
O     -1.40054    -0.83441    -1.21483
H     -0.90897    -1.37365    -0.56893
O     -2.29919    -0.16294    -0.31602
H     -1.96831     0.74521    -0.33420
