 24
-909.9796485236561
O     -2.04005    -1.27217    -0.07646
H     -2.19381    -0.47951    -0.62423
O     -1.84108    -0.69128     1.21641
H     -1.00439    -1.11545     1.49183
O      0.32539    -2.12073    -0.96860
H     -0.60337    -1.99689    -0.67401
O      0.51748    -0.91048    -1.69951
H      0.43839    -1.20776    -2.61218
O      3.02113    -0.26401    -0.81287
H      2.13271    -0.41022    -1.17689
O      2.77848     0.78448     0.13257
H      2.80622     0.30382     0.97409
O     -1.93969     1.01843    -1.56152
H     -1.15024     1.44465    -1.17648
O     -2.94548     1.99651    -1.33352
H     -3.20173     2.21120    -2.23485
O      1.38606    -0.38828     2.28991
H      0.79327     0.35859     2.08213
O      0.60782    -1.50889     1.86027
H      1.00217    -1.74001     1.00404
O      0.27183     1.68184    -0.06871
H      1.21501     1.40485    -0.02140
O     -0.11673     1.64130     1.31358
H     -0.96519     1.17342     1.26153
