 32
-1213.30661285764
O      3.24608     0.14897     2.77422
H      3.30708     0.39283     1.83291
O      2.65971    -1.15030     2.64141
H      2.96023    -1.58389     3.44516
O      1.91277    -2.48863    -0.92561
H      2.07135    -2.80810    -1.81775
O      0.87078    -1.55806    -1.16741
H      0.44286    -1.50812    -0.28047
O     -4.19638    -1.18854    -0.95917
H     -5.13352    -1.40328    -0.91834
O     -4.14082    -0.36050    -2.13040
H     -3.25409     0.01756    -2.01576
O     -0.23573     1.96476     0.14272
H      0.18001     1.27045     0.70258
O      0.84116     2.38355    -0.69816
H      0.59889     1.91600    -1.52061
O      2.99538     0.99219     0.20512
H      2.37033     1.66140    -0.13658
O      3.29879     0.22896    -0.97115
H      2.78530    -0.57595    -0.81346
O     -0.35195     0.64874    -2.30073
H      0.04159    -0.17094    -1.96160
O     -1.61080     0.65370    -1.62665
H     -1.39960     1.26046    -0.89024
O     -0.27904    -1.10636     1.19482
H     -1.20555    -0.76678     1.20675
O      0.42611     0.00919     1.76812
H      1.20165    -0.43146     2.18584
O     -3.00973     1.14435     1.19584
H     -2.10773     1.47370     1.30021
O     -2.76510    -0.25256     1.09837
H     -3.32891    -0.50493     0.33891
