 36
-1364.9797088252583
O      2.97290    -0.25446    -1.76610
H      3.03154    -0.31240    -0.79748
O      1.97085     0.74973    -1.92043
H      1.19874     0.24461    -2.24014
O     -0.94810    -3.07456    -0.56765
H     -1.21569    -2.68309    -1.41729
O     -1.19713    -1.98958     0.31747
H     -0.30232    -1.65318     0.54085
O     -1.92011     0.76695    -0.83050
H     -1.26956     1.41714    -0.48471
O     -2.53400     0.29913     0.36701
H     -2.26572    -0.63981     0.34413
O     -1.89625     0.90738     3.61144
H     -1.48039     0.24446     4.17084
O     -1.01661     0.87165     2.48467
H     -1.66319     0.71626     1.75902
O     -0.32058    -0.47167    -2.62809
H     -1.07619    -0.17348    -2.08565
O     -0.65966    -1.81629    -2.96222
H      0.23492    -2.20419    -2.92886
O     -0.68265     3.89499     2.15085
H     -0.68871     4.84961     2.27828
O     -2.03823     3.54688     2.44152
H     -1.88665     2.85179     3.09651
O      1.19230     1.76060     0.41134
H      1.61631     1.65270    -0.46364
O     -0.02160     2.40432     0.03872
H     -0.20204     2.94711     0.83776
O      2.45122    -1.16625     0.74296
H      2.30582    -2.01803     0.28633
O      1.09074    -0.84633     1.03245
H      1.07452     0.13467     0.98047
O      1.71670    -3.12711    -0.91769
H      0.75305    -3.26364    -0.81339
O      1.79795    -2.63357    -2.25407
H      2.33999    -1.82811    -2.13586
