 24
-909.9789646191832
O     -1.66437    -2.84411     0.63670
H     -1.72394    -3.59200     1.23940
O     -2.38331    -1.83369     1.33978
H     -1.64318    -1.28996     1.68834
O      1.63134     0.45059    -2.22171
H      1.38002     0.21029    -3.11859
O      0.72930     1.52257    -1.93500
H      1.11941     1.84724    -1.09494
O      1.46746    -1.00731     0.01106
H      1.57868    -0.50417    -0.82006
O      1.12545    -2.29474    -0.49014
H      0.19879    -2.37054    -0.22143
O     -2.13290     0.30998    -0.61232
H     -2.56170    -0.46708    -0.22750
O     -1.15056    -0.33149    -1.44221
H     -0.53916     0.41098    -1.60726
O     -0.26821    -0.28261     1.85691
H      0.40861    -0.51539     1.17904
O     -0.64356     1.04163     1.46119
H     -1.21641     0.86682     0.67996
O      1.64877     2.02059     0.53892
H      0.86709     1.74477     1.07312
O      1.57362     3.44470     0.62856
H      2.41569     3.63828     1.05041
