 32
-1213.3123098443739
O      2.80327    -2.07498     1.65098
H      2.62737    -2.13200     0.68526
O      3.77884    -1.03801     1.72533
H      4.61157    -1.52090     1.70680
O      1.79642    -2.20225    -0.83013
H      0.84459    -2.07413    -0.69529
O      2.13032    -1.06947    -1.65371
H      2.09181    -0.34452    -0.99867
O     -3.32376    -0.35938    -0.98621
H     -3.76399     0.48545    -0.79733
O     -3.01277    -0.76494     0.35786
H     -2.06284    -0.98164     0.29794
O     -0.32460     1.93286     0.68548
H     -1.11198     1.84829     1.25816
O     -0.91981     2.36293    -0.54450
H     -0.81963     1.57250    -1.11109
O      2.46042     1.88050     0.17634
H      1.66030     2.33018     0.48191
O      2.07461     0.53187     0.46699
H      2.80470     0.19212     1.02515
O     -0.47628    -1.04966    -2.65354
H      0.44534    -0.82747    -2.82229
O     -0.97784     0.20081    -2.18055
H     -1.87309    -0.07758    -1.89927
O     -0.35830    -0.95076     0.52704
H      0.04839    -0.07454     0.38528
O     -0.10950    -1.14815     1.91194
H      0.78665    -1.52234     1.90037
O     -3.43188     2.11417     0.22874
H     -2.60916     2.40297    -0.20785
O     -2.86152     1.64430     1.46730
H     -2.97305     0.68321     1.32995
