 40
-1516.6416128670603
O      0.77468     2.92007     0.59961
H     -0.06526     2.92111     1.09578
O      1.52880     1.98937     1.36814
H      2.37151     2.44182     1.46807
O     -2.42188     1.32418    -0.76750
H     -2.52377     1.79385     0.07709
O     -1.04955     0.95566    -0.66228
H     -1.04830     0.31362     0.08998
O     -1.41549     2.79568     2.21390
H     -1.30837     1.89584     2.58129
O     -2.69338     2.67938     1.60039
H     -3.08456     3.52751     1.81946
O      2.67447    -0.31658     3.16069
H      2.91925    -1.13782     3.59374
O      1.63606    -0.77612     2.30441
H      2.04143    -0.72243     1.40710
O     -1.40109    -0.45116     1.57860
H     -1.12784    -1.37419     1.71760
O     -0.80355     0.21569     2.69965
H      0.14495    -0.02608     2.59030
O     -0.07281    -2.98541     1.14925
H      0.56330    -2.44996     0.62149
O     -0.59045    -3.82446     0.11636
H     -0.40626    -4.70062     0.46858
O      1.84306     1.63278    -1.46499
H      1.41312     2.22261    -0.81164
O      0.80534     1.46353    -2.44123
H      0.03388     1.25705    -1.86850
O     -2.72279    -2.23602    -1.63407
H     -1.97794    -2.63058    -1.16632
O     -2.08588    -1.12427    -2.27800
H     -2.44800    -0.36273    -1.79539
O      2.44084    -0.68533    -0.22046
H      2.27432     0.14885    -0.70980
O      1.22516    -1.38659    -0.46502
H      1.21483    -1.54677    -1.44533
O      0.74810    -1.66872    -3.03718
H     -0.18534    -1.41317    -3.11533
O      1.40449    -0.73012    -3.88780
H      1.24756     0.10850    -3.40646
