 40
-1516.6390041812506
O      1.52644     3.58195     0.28078
H      1.40672     3.22167    -0.61719
O      2.88662     3.24002     0.51558
H      3.19488     3.99684     1.02386
O      0.06152    -1.16017     1.73552
H      0.26270    -0.26850     1.36448
O      0.03223    -0.91924     3.14084
H     -0.90257    -0.65429     3.24398
O      1.19849     2.48182    -2.16203
H      1.78626     2.55417    -2.91938
O      0.97404     1.07897    -2.09512
H      1.68898     0.77018    -1.49025
O     -2.07937     0.76490    -0.92113
H     -2.39693    -0.08058    -0.55633
O     -1.68471     0.40122    -2.23917
H     -0.74367     0.65681    -2.24840
O     -0.40101     2.27443     1.67124
H      0.27706     2.92449     1.41151
O     -0.05834     1.26625     0.71521
H     -0.81745     1.29569     0.08964
O      3.01720     0.13039    -0.60212
H      3.03844    -0.83799    -0.54438
O      2.86464     0.49089     0.77271
H      2.92636     1.45734     0.71800
O     -2.56493    -0.24233     2.95587
H     -2.82383    -0.96197     2.36380
O     -2.69997     0.87389     2.06709
H     -1.85785     1.33785     2.19176
O     -1.88111    -3.12714    -0.05379
H     -1.96179    -2.90309    -1.00564
O     -2.15527    -1.85279     0.53094
H     -1.28688    -1.64621     0.94363
O      2.03603    -2.50431     0.09475
H      1.73614    -2.11283     0.93008
O      0.83488    -2.50131    -0.66768
H      0.26509    -3.15168    -0.22285
O     -0.50994    -2.41055    -3.05534
H     -0.00576    -2.41110    -2.22584
O     -1.83737    -2.23289    -2.56423
H     -1.92037    -1.25829    -2.58772
