 32
-1213.3115406447755
O     -0.19925    -0.31994     2.74453
H     -0.58469    -1.05714     2.25050
O      1.05292    -0.83195     3.20792
H      1.50437    -1.00204     2.35550
O     -0.39536    -1.12302    -0.68843
H     -0.77617    -0.20741    -0.68734
O     -1.46037    -1.88041    -1.26208
H     -1.17736    -1.84846    -2.19508
O     -0.17986    -1.22106    -3.57022
H      0.58678    -0.79485    -3.13562
O     -0.80112    -0.07208    -4.15129
H     -0.70420    -0.25838    -5.08951
O      1.86978    -1.14573     0.69057
H      1.04488    -1.19289     0.16430
O      2.43174     0.09980     0.26349
H      1.98336     0.76174     0.84688
O      1.58931     0.30685    -2.24382
H      2.02272     0.25694    -1.36147
O      1.07624     1.64040    -2.23750
H      0.36620     1.55390    -2.88479
O     -1.60100     1.59472     0.83206
H     -2.17674     0.82584     0.98782
O     -1.21049     1.35334    -0.52325
H     -0.33506     1.76989    -0.55446
O      1.10940     1.93776     1.63844
H      0.24542     1.59809     1.93462
O      1.82999     2.13769     2.85029
H      1.86007     1.23981     3.21046
O     -2.28414    -1.72005     1.32052
H     -2.21398    -1.92371     0.37222
O     -3.15078    -0.58553     1.28367
H     -3.70078    -0.75086     2.05471
