 16
-606.6354766974404
O     -2.18814    -0.04384    -0.50554
H     -2.60824     0.29283     0.29113
O     -1.25836     1.00840    -0.78945
H     -0.46090     0.49934    -1.04026
O      1.20141     0.07230    -1.25275
H      1.70221     0.86034    -0.99656
O      1.67168    -0.84452    -0.24871
H      0.90724    -1.44331    -0.18545
O      1.87346     2.21165     0.39994
H      2.16005     1.68136     1.15045
O      0.63441     2.74845     0.86907
H     -0.00193     2.26151     0.32700
O     -0.67911    -2.23804    -0.05946
H     -1.33083    -1.54069    -0.26029
O     -0.92671    -2.43406     1.33332
H     -1.07800    -3.38394     1.35567
