 36
-1364.9761219833304
O      0.11437    -0.06471     0.86662
H      0.84102    -0.68921     0.63061
O      0.57597     0.55775     2.07435
H     -0.29410     0.78520     2.44479
O     -2.07789     0.01780     2.78253
H     -2.05325    -0.83106     2.31940
O     -3.22615     0.66042     2.22890
H     -3.04349     0.62792     1.27042
O      1.16443    -0.80035    -2.94340
H      1.12357    -1.54246    -2.30340
O      0.09967     0.02724    -2.47860
H      0.56842     0.67570    -1.91551
O     -1.51104     3.14316     2.21164
H     -2.33974     2.67465     2.36958
O     -1.56410     3.28677     0.78339
H     -0.62622     3.38484     0.57805
O      1.94629    -1.78245    -0.00861
H      2.67999    -1.41282    -0.53778
O      1.27641    -2.60117    -0.97320
H      0.43223    -2.78696    -0.51479
O     -2.22159     0.31157    -0.30227
H     -1.33425     0.26493     0.11959
O     -2.13162    -0.77316    -1.22426
H     -1.42111    -0.47032    -1.82914
O      1.37373     1.79391    -0.91899
H      2.31212     1.74221    -1.16008
O      1.39709     2.51819     0.31910
H      1.22885     1.81613     0.97033
O      3.47966     0.43639    -2.32141
H      2.72287    -0.03209    -2.72568
O      3.89424    -0.53286    -1.36344
H      4.77464    -0.76744    -1.67400
O     -1.19766    -2.91265     0.09020
H     -1.68459    -2.15482    -0.30681
O     -1.43936    -2.73363     1.47469
H     -1.98880    -3.49739     1.66837
