 32
-1213.3125439006656
O      0.64469    -3.40576     1.16328
H      0.37246    -2.81720     1.88121
O     -0.64124    -3.64308     0.57788
H     -0.45321    -3.51957    -0.36751
O      1.61101    -0.86234     0.14121
H      1.60535    -1.82280     0.28514
O      2.20897    -0.68731    -1.14591
H      1.76215    -1.37770    -1.66466
O     -2.09767     0.15095    -0.72098
H     -2.06744    -0.41266     0.08626
O     -0.89705    -0.21356    -1.40797
H     -0.35774     0.58236    -1.27238
O     -1.76718     2.79038    -0.51636
H     -2.16670     1.91322    -0.64891
O     -0.41569     2.42027    -0.84052
H      0.04829     3.27613    -0.67589
O      0.77151     4.57725     0.03688
H      0.35560     5.21233     0.62921
O      1.87879     4.10623     0.80950
H      1.58949     3.20081     1.03357
O     -0.34644    -2.74080    -1.97148
H     -0.53892    -1.79260    -1.78726
O      0.94257    -2.66382    -2.56626
H      0.73210    -2.62146    -3.50422
O     -1.94743    -1.47299     1.39640
H     -1.74158    -2.36736     1.06252
O     -0.72741    -1.23472     2.12059
H     -0.53749    -0.29304     1.91651
O      1.29093     1.48576     1.39402
H      1.48566     0.64482     0.93116
O     -0.13002     1.34974     1.60493
H     -0.46609     1.80548     0.81172
