 20
-758.3048204880301
O     -1.67455    -1.51993     1.58416
H     -1.86198    -0.57498     1.67810
O     -1.11765    -1.57840     0.26754
H     -0.21049    -1.25072     0.40464
O      3.78996     0.02666    -1.63933
H      2.84069     0.17642    -1.76246
O      3.77218    -0.76221    -0.43919
H      4.06520    -1.62338    -0.75531
O     -0.70839     1.78518     0.63616
H     -1.60649     1.54014     0.33198
O     -0.69123     1.24029     1.96061
H      0.12745     0.73117     1.91687
O      1.27944    -0.39293     0.45145
H      2.23028    -0.55292     0.29840
O      0.93269     0.24324    -0.79163
H      0.38964     0.97008    -0.43314
O     -2.29023     0.20541    -1.34097
H     -1.98279    -0.53929    -0.78381
O     -3.01880     0.95122    -0.36113
H     -3.74490     1.29782    -0.88702
