 28
-1061.6410033104205
O      0.87317    -0.25971    -0.95136
H      1.66838     0.07386    -0.49876
O      0.67169     0.68177    -2.00864
H     -0.08259     1.19919    -1.66530
O     -1.79124    -0.80408     1.09002
H     -2.10548    -0.45608     0.22857
O     -0.66709    -1.61626     0.73492
H     -0.21242    -1.09543     0.04468
O      0.37101    -0.01982     3.46888
H      0.32698    -0.31251     4.38593
O      0.99620    -1.14468     2.84401
H      4.14083    -0.67314     0.20850
O     -0.81278     1.93239     1.30569
H     -0.88440     1.01426     1.61279
O      0.56962     2.07341     0.98190
H      0.98330     2.25077     1.83767
O     -1.73032     1.65644    -1.20401
H     -1.59581     1.84729    -0.25621
O     -2.47480     0.43615    -1.15292
H     -2.18807    -0.01810    -1.97551
O      2.77604     0.07125     1.22537
H      2.20021    -0.41548     1.84999
O      3.26772    -1.01070     0.42533
H      0.29079    -1.46978     2.24323
O     -0.63817    -0.75211    -3.95869
H     -0.11228    -0.34890    -3.24319
O     -1.85250    -1.03671    -3.26206
H     -1.89278    -1.99691    -3.30250
