 32
-1213.311244371919
O      1.78355    -0.91595     2.51320
H      1.40573    -1.48202     1.82261
O      2.57638    -0.03902     1.72799
H      3.46944    -0.25593     2.01358
O      0.71291    -1.01568    -1.86377
H      0.75733    -0.13237    -2.26973
O      0.01146    -1.78702    -2.84353
H     -0.85263    -1.88142    -2.41129
O     -0.44205     0.73760     1.97752
H      0.04742     0.22898     2.64157
O     -0.56699     2.03371     2.56593
H      0.10968     2.52340     2.06590
O     -1.46913     0.36650    -0.75681
H     -0.81189    -0.28823    -0.45681
O     -2.42548     0.37096     0.29602
H     -1.83898     0.52021     1.06866
O      1.22876     3.22351     0.84203
H      0.64154     3.23989     0.05888
O      2.20425     2.29972     0.35472
H      2.11103     1.54510     0.95656
O     -2.65877    -2.22392    -0.40220
H     -2.88528    -1.29054    -0.22997
O     -2.52884    -2.20052    -1.82178
H     -3.06933    -2.95381    -2.07428
O      0.72928    -2.91400     0.04081
H      0.88905    -2.40784    -0.77787
O     -0.17268    -2.02508     0.71959
H     -1.03484    -2.37956     0.44108
O      0.00112     2.50447    -1.37539
H     -0.59773     1.77160    -1.12323
O      1.09924     1.79351    -1.97217
H      1.75706     1.90908    -1.25983
