 16
-606.6363742255943
O     -2.28075    -0.60837     1.26735
H     -3.21891    -0.39642     1.24161
O     -1.84175     0.14111     2.40928
H     -1.03287     0.53572     2.05169
O      1.44345     0.17008     1.35409
H      1.74216     0.34180     0.44799
O      0.54633     1.26287     1.54337
H      1.00654     1.77483     2.21659
O      1.66247     0.75945    -1.59648
H      0.70148     0.60881    -1.48444
O      2.03904    -0.41453    -2.32927
H      2.09094    -0.06746    -3.22571
O     -0.81781    -0.11057    -0.92252
H     -1.29247    -0.33409    -0.09421
O     -0.88588    -1.35791    -1.62991
H      0.05317    -1.57801    -1.68877
