 40
-1516.6386104859996
O      1.53560    -0.91126    -0.77383
H      1.86651     0.01668    -0.71803
O      1.62699    -1.29479     0.60976
H      0.74458    -1.68841     0.74629
O      0.11845     1.51552     1.74301
H      0.85826     1.35753     1.13759
O     -0.64010     0.33027     1.54112
H     -0.48801    -0.14023     2.38894
O      2.58809     1.38766    -0.12494
H      3.49347     1.28050     0.22483
O      2.70450     2.47728    -1.05104
H      1.76598     2.51087    -1.32715
O     -2.62610     0.42899    -0.18880
H     -1.86847     0.44380     0.44795
O     -2.77904    -0.96022    -0.46584
H     -2.04409    -1.11291    -1.10470
O     -0.57928    -2.11005     4.19371
H     -1.20318    -2.24068     3.46706
O     -0.19520    -0.75962     3.93749
H     -0.45279    -0.29795     4.74245
O      0.17303     1.89105    -1.46165
H      0.07219     1.03715    -1.93182
O     -0.32373     2.81153    -2.42902
H     -1.25858     2.56866    -2.41812
O     -2.87712     1.55081    -2.59839
H     -2.90820     1.12222    -1.71439
O     -3.10024     0.42457    -3.44025
H     -3.57265     0.82975    -4.17327
O     -0.57163    -0.21877    -2.88177
H     -1.48862    -0.08884    -3.19608
O     -0.70221    -1.38733    -2.06015
H      0.13725    -1.31724    -1.54529
O     -1.86478    -2.40161     1.55944
H     -2.35182    -1.83364     0.91808
O     -0.67968    -2.64083     0.80177
H     -0.76588    -3.56656     0.55701
O      4.70028     0.35689     1.06729
H      5.46336     0.60105     1.59590
O      3.73000     0.06187     2.07312
H      3.21356    -0.60761     1.60369
