 20
-758.3025177401429
O      1.36372    -0.76543     1.23032
H      1.52420    -0.99949     0.29702
O      0.08561    -1.39263     1.43185
H     -0.25794    -0.87116     2.17025
O      2.98630    -0.98515    -1.38120
H      3.28094    -1.89880    -1.34658
O      1.57321    -1.18513    -1.40930
H      1.27768    -0.40403    -1.90190
O     -1.65316     0.54036     2.63492
H     -1.68907     0.81245     1.69879
O     -0.98597     1.66575     3.21290
H     -1.63507     1.94306     3.86514
O     -1.39528     0.92693    -0.01778
H     -0.51242     1.17812    -0.32633
O     -1.45829    -0.42722    -0.50090
H     -0.87970    -0.88752     0.15135
O     -0.50375     0.25102    -2.95563
H     -1.04813    -0.09155    -2.22400
O      0.35449     1.10791    -2.18231
H      0.31387     1.92655    -2.68701
