 40
-1516.6481589096215
O      3.39705    -1.48959    -1.87567
H      3.89956    -1.86586    -1.13734
O      2.99635    -0.25320    -1.27458
H      2.69310     0.24446    -2.04242
O     -1.21487     0.94349     1.92936
H     -1.01210     1.89347     2.02859
O     -2.64747     0.93473     1.89168
H     -2.78627     0.47526     1.04090
O     -0.61072     3.62737     0.44872
H      0.09235     2.95576     0.31265
O     -0.74101     3.60868     1.87704
H     -1.63896     3.96639     1.95236
O      1.64241    -0.60043     1.45912
H      2.26551    -1.35046     1.39198
O      0.39696    -1.28161     1.64131
H     -0.18471    -0.52845     1.85680
O     -3.15930     3.28117    -0.19963
H     -2.19717     3.44790    -0.19843
O     -3.41716     3.42642     1.20357
H     -3.34151     2.50575     1.50981
O      0.98441     1.56717    -0.00113
H      1.31759     0.77585     0.48100
O      0.28849     0.97508    -1.09205
H     -0.63118     1.01870    -0.78304
O     -3.72025     0.77096    -1.06250
H     -3.54451     1.69607    -0.79873
O     -2.51817     0.14161    -0.61142
H     -2.31145    -0.49306    -1.32029
O      0.09751    -3.23188    -0.17408
H      0.27519    -2.55470     0.51015
O      1.36103    -3.32815    -0.84168
H      1.28540    -2.60339    -1.50179
O     -1.08242    -1.76695    -2.03285
H     -0.94391    -2.48968    -1.38932
O      0.28451    -1.40045    -2.24257
H      0.32801    -0.53599    -1.78575
O      4.37953    -2.63790     0.39002
H      4.86722    -3.44804     0.56319
O      3.14565    -2.87755     1.05898
H      2.57222    -3.19066     0.31800
