 32
-1213.3082784094145
O     -1.91522    -1.68375     2.90515
H     -1.81708    -2.34869     2.20159
O     -0.84054    -0.81252     2.56158
H     -1.29628    -0.12332     2.04840
O      2.89091    -0.01986    -2.69403
H      2.94724     0.57731    -1.93671
O      2.20178    -1.11876    -2.09989
H      1.41321    -1.18695    -2.65953
O     -1.40035    -2.89729     0.56844
H     -0.50084    -2.57355     0.36180
O     -2.18301    -2.24723    -0.42717
H     -2.57366    -1.49836     0.04797
O     -1.77455     1.06799     0.85705
H     -2.12315     1.92900     1.11947
O     -2.74916     0.59270    -0.07212
H     -2.21880     0.58722    -0.89352
O      2.45122     1.81134    -0.30338
H      2.36399     2.68422     0.11427
O      1.14060     1.31564    -0.00255
H      1.33715     0.48164     0.49861
O     -0.89102     0.29017    -1.98245
H     -0.10058     0.59016    -1.50696
O     -0.59463    -1.08636    -2.21532
H     -1.20998    -1.53519    -1.59727
O      1.05100    -1.96632     0.17622
H      1.58149    -1.66006    -0.58879
O      1.41089    -1.02812     1.19428
H      0.65766    -1.12110     1.82430
O      0.00601     3.53550     0.79254
H      0.18979     2.61702     0.51589
O      1.35009     4.05915     0.70676
H      1.22078     4.80830     0.11685
