 24
-909.9833312445078
O      0.68926    -1.50991     1.73256
H      1.22766    -0.75778     1.42953
O      0.68362    -2.36389     0.58650
H     -0.25230    -2.25645     0.32056
O     -0.61238     0.44591    -1.47423
H      0.23977     0.03708    -1.75097
O     -0.11952     1.59775    -0.77645
H     -0.93838     1.91093    -0.34192
O      2.97321     0.76117     0.11414
H      3.32342     1.64962     0.21989
O      1.77980     0.81592     0.88628
H      1.10249     1.11639     0.23148
O     -3.56386     2.12918     0.01266
H     -3.97164     2.86696     0.47370
O     -2.33715     2.01383     0.72378
H     -2.39869     1.11066     1.08925
O     -1.70213    -1.29574     0.23750
H     -1.41517    -0.59523    -0.38338
O     -1.76938    -0.58327     1.47998
H     -0.92431    -0.87445     1.87474
O      2.02595    -1.87230    -1.77575
H      1.58039    -2.07052    -0.93366
O      1.79686    -0.47376    -1.92599
H      2.43017    -0.09230    -1.28928
