 24
-909.9778912456288
O     -3.44276     1.54224    -0.04262
H     -4.00781     1.74948     0.70632
O     -2.41804     0.79154     0.60744
H     -1.62360     1.35132     0.44442
O      0.66384    -1.53755    -1.27988
H     -0.30985    -1.53259    -1.26896
O      0.93631    -0.17477    -1.61179
H      1.86930    -0.08184    -1.31645
O     -0.08511     1.80317    -0.17779
H      0.19360     1.13794    -0.83738
O      0.86760     1.55901     0.86146
H      0.57438     0.68100     1.20219
O     -1.93040    -2.25230     0.53105
H     -1.84588    -3.15266     0.20494
O     -1.99081    -1.50596    -0.69163
H     -2.24940    -0.63428    -0.32214
O     -0.02456    -0.79084     1.70682
H     -0.79019    -1.32075     1.41548
O      1.05722    -1.67648     1.40848
H      1.05307    -1.64896     0.43294
O      2.96665     1.88727    -0.77549
H      2.25740     1.87967    -0.09865
O      3.33250     0.50426    -0.79065
H      4.14310     0.49720    -0.27150
