 36
-1364.9729096167694
O      1.84528     1.86587     0.05321
H      0.98306     2.32464     0.16544
O      1.97652     1.75362    -1.36137
H      1.40236     0.99183    -1.53382
O      3.54984    -0.10490     0.41103
H      2.93465     0.66423     0.32518
O      3.76612    -0.16354     1.82269
H      4.58252     0.33466     1.91794
O     -2.81480     0.67435    -0.05623
H     -3.30025     0.14404    -0.72778
O     -3.34024     0.17422     1.17780
H     -2.71684    -0.55124     1.36271
O     -1.19028     2.19589     1.37526
H     -1.90772     1.81835     0.81552
O     -0.55167     3.10292     0.47741
H     -0.67155     3.93733     0.93840
O     -3.70980    -0.83288    -2.03300
H     -4.50002    -1.04464    -2.53902
O     -3.07053     0.13458    -2.87158
H     -2.16162    -0.18785    -2.82640
O     -0.40089    -0.08809    -1.66527
H     -0.96178    -0.41867    -0.93389
O     -0.26399    -1.22802    -2.50824
H      0.58652    -1.58389    -2.19717
O      0.45376     0.16189     2.00511
H     -0.10389     0.95142     1.84646
O      1.39136     0.66885     2.95066
H      2.21137     0.34594     2.54635
O      2.07962    -2.32164    -0.27301
H      2.73533    -1.65485     0.01310
O      2.19311    -2.21008    -1.69543
H      2.46021    -3.10231    -1.93321
O     -1.34047    -1.73662     1.66828
H     -0.65811    -1.08925     1.95450
O     -0.88040    -2.08099     0.35885
H      0.08378    -2.08037     0.45520
