 36
-1364.9716632275106
O      0.95652     1.65999     3.45440
H      0.70188     2.05077     4.29520
O      0.06283     2.31312     2.56249
H      0.68408     2.60890     1.87517
O      1.15544    -1.06645     2.97804
H      0.96435    -0.12377     3.08162
O      0.18086    -1.43848     2.00846
H      0.42980    -2.37462     1.83917
O      1.56754     2.34087     0.26436
H      1.69362     1.36217     0.23338
O      0.67534     2.57376    -0.82601
H      1.27750     2.69012    -1.57008
O     -2.85565     1.57922    -2.55898
H     -2.84490     1.80238    -1.61448
O     -1.55058     2.02544    -2.93404
H     -1.73056     2.60268    -3.68217
O      0.33763     0.11300    -2.60575
H     -0.43023     0.70907    -2.72157
O     -0.16114    -1.13043    -3.09138
H     -0.66300    -1.42217    -2.30787
O     -1.83239     2.24005     0.13868
H     -0.97249     2.40966    -0.28372
O     -1.57074     0.99443     0.78432
H     -1.16331     1.28495     1.61842
O      1.03360    -3.62657    -0.22671
H      1.33418    -2.71187    -0.43223
O      1.23047    -3.72071     1.18565
H      2.16682    -3.93203     1.27822
O      1.81480    -0.30509     0.26240
H      1.11509    -0.71191     0.82599
O      1.87269    -1.16322    -0.88229
H      1.32446    -0.66727    -1.53983
O     -1.81152    -2.60359    -0.02066
H     -1.03753    -3.17989    -0.05837
O     -1.28099    -1.45544    -0.68746
H     -1.43658    -0.73700    -0.04800
