 24
-909.9797959985972
O     -1.64398    -1.10233    -0.58632
H     -1.98267    -0.18517    -0.57864
O     -0.99802    -1.17364     0.69342
H     -0.06352    -1.32137     0.43916
O      0.22538    -1.22079    -2.53003
H     -0.56765    -1.35884    -1.97567
O      0.73611    -2.54456    -2.63841
H      0.71533    -2.66476    -3.59163
O      1.57114     0.17138    -0.65071
H      1.21837    -0.26267    -1.45211
O      1.63751    -0.96813     0.22340
H      1.93281    -0.52092     1.04114
O     -2.22374     1.84643    -1.95484
H     -3.05290     2.30042    -2.13321
O     -2.40847     1.48364    -0.58492
H     -1.65532     1.94340    -0.15460
O      1.98889     0.57417     2.40203
H      1.13238     1.04725     2.37495
O      1.75642    -0.37724     3.44122
H      2.43592    -0.12428     4.07331
O     -0.05238     1.93992     0.53616
H      0.56236     1.28737     0.13426
O     -0.52838     1.28898     1.71416
H     -0.84078     0.42114     1.38445
