 36
-1364.9719331143701
O      0.82743     2.94143    -0.19968
H      0.13585     2.71501    -0.85014
O      0.23282     2.44381     1.00449
H      0.73842     1.61019     1.12498
O      0.14412    -1.76942    -0.30059
H     -0.24767    -2.65073    -0.11415
O     -0.40971    -1.47275    -1.58557
H     -0.98467    -0.70947    -1.38193
O     -1.41805    -1.18247     2.23657
H     -1.86338    -0.39734     1.86418
O     -0.79740    -0.59391     3.39153
H      0.08390    -0.41235     3.03889
O      1.21604     0.03553     1.31356
H      0.77545    -0.63154     0.73198
O      2.54678    -0.43980     1.39439
H      2.90379    -0.07999     0.56709
O     -2.09342     1.33193     1.63236
H     -1.26964     1.86643     1.56696
O     -2.72873     1.88502     2.77518
H     -2.42216     1.27866     3.46304
O     -1.70224     0.83382    -1.26487
H     -1.89358     1.25820    -0.41399
O     -0.88930     1.82106    -1.90038
H     -0.41547     1.28982    -2.57597
O      2.52636     1.06679    -1.17925
H      2.05486     1.83874    -0.80561
O      3.01557     1.59305    -2.42132
H      2.73711     0.88054    -3.00650
O      1.29430    -0.48328    -3.38954
H      0.84023    -0.90865    -2.63073
O      0.27079     0.40843    -3.83310
H     -0.13637    -0.07003    -4.56373
O     -0.51574    -3.92383     1.69944
H     -0.97993    -3.15829     2.06690
O     -1.16453    -3.98940     0.42920
H     -1.26305    -4.93724     0.29864
