 32
-1213.3085331555621
O      2.06291     0.84211     0.80102
H      2.50820     0.34944     0.08439
O      0.95556     1.42906     0.11543
H      0.24411     1.44217     0.79776
O     -0.52131    -1.50009    -0.62072
H     -0.11919    -1.00486    -1.36955
O      0.63578    -1.91243     0.12416
H      0.39982    -1.62405     1.03604
O     -1.95262     1.77441    -2.45155
H     -1.07412     1.57541    -2.80591
O     -1.82085     1.19748    -1.14774
H     -2.48593     0.49667    -1.13357
O      1.36243    -0.68146     2.87493
H      1.60079    -0.07429     2.14356
O      0.02661    -1.04354     2.53096
H     -0.51645    -0.41561     3.02730
O      0.67051    -0.33189    -2.70518
H      1.54965    -0.73977    -2.75013
O      0.98069     1.04987    -2.52314
H      0.91621     1.16234    -1.55007
O      3.48765    -0.62311    -0.89236
H      4.30523    -1.03084    -0.59177
O      2.77659    -1.72720    -1.44276
H      2.05921    -1.83201    -0.78141
O     -1.15942     1.54570     1.70560
H     -1.87577     0.91891     1.51366
O     -1.57954     2.72458     1.01224
H     -1.68175     2.38077     0.10382
O     -2.66191    -0.87455     0.86192
H     -1.90415    -1.31725     0.42398
O     -2.97202    -1.77646     1.91720
H     -3.89026    -1.97021     1.71237
