 24
-909.9795219223178
O     -0.82811    -1.22850     1.87391
H     -0.85404    -0.27867     1.67789
O     -0.70586    -1.79972     0.57437
H      0.25530    -1.99153     0.51397
O      0.43087    -0.25875    -1.74087
H     -0.54323    -0.38063    -1.76632
O      0.56801     1.05829    -2.28318
H      0.09269     1.57863    -1.60977
O      2.32981    -0.80611     0.00819
H      1.64082    -0.48694    -0.62578
O      1.94632    -2.17312     0.19338
H      2.31437    -2.60513    -0.58290
O     -2.21851    -0.42174    -1.84427
H     -2.83804    -0.90604    -2.39870
O     -2.77019    -0.56917    -0.53591
H     -2.09283    -1.15426    -0.12921
O     -0.57430     2.16721    -0.06215
H      0.24660     2.13710     0.46280
O     -1.48661     1.58005     0.87136
H     -2.10332     1.12929     0.27774
O      1.74671     1.90840     1.29612
H      2.32858     2.51608     1.76342
O      1.60940     0.83685     2.23471
H      1.97247     0.10743     1.70582
