 20
-758.3037829450432
O      0.40714    -2.89210     2.23576
H      1.14685    -2.61209     2.78572
O      1.03636    -3.80350     1.32198
H      1.03366    -3.26638     0.51482
O      0.41315    -1.50608    -0.41276
H      0.87316    -0.65184    -0.58298
O     -0.57674    -1.06762     0.53583
H     -0.37350    -1.67886     1.26974
O     -0.42126     1.98341     1.18039
H     -1.09047     1.85513     0.48451
O      0.44950     2.90550     0.52155
H      0.82468     3.38383     1.26696
O      0.78862     1.15306    -2.25779
H     -0.10474     0.80244    -2.10201
O      1.39384     0.88838    -0.98545
H      1.09806     1.65254    -0.45156
O     -1.68649     0.33321    -1.42127
H     -1.41680    -0.21791    -0.65915
O     -2.23632     1.45813    -0.73254
H     -2.50190     2.01219    -1.47267
