 16
-606.6381567503907
O     -2.37485    -0.27178     1.79069
H     -3.01192     0.36066     2.13368
O     -1.63465     0.55094     0.88054
H     -0.76586     0.61358     1.33352
O      1.45913    -0.59347     1.56235
H      0.92018    -0.99616     0.86509
O      0.96145     0.74907     1.60750
H      1.29447     1.12373     0.77681
O      0.64234     1.19103    -1.20539
H     -0.03128     0.53904    -1.47394
O      1.72946     0.82553    -2.06455
H      1.80206     1.61380    -2.61071
O     -1.04317    -0.94739    -1.48478
H     -1.53377    -0.74363    -0.67479
O     -0.04944    -1.84125    -0.96387
H      0.61663    -1.79174    -1.65552
