 40
-1516.6398880019156
O      2.26857     0.30140    -0.33540
H      2.06250    -0.41242     0.31026
O      1.87833    -0.26511    -1.58431
H      1.26068     0.41605    -1.91952
O      1.75388    -1.28621     1.74595
H      0.94082    -1.81071     1.69810
O      1.38408    -0.24969     2.65651
H      2.17754     0.30667     2.60694
O      0.93172     2.61521     1.43786
H      0.44681     1.85422     1.07975
O      1.65037     3.07313     0.29023
H      2.57015     3.00844     0.58953
O      0.11662     1.59241    -2.46274
H     -0.75657     1.20527    -2.69141
O     -0.25609     2.63035    -1.55398
H      0.59271     2.83214    -1.10831
O     -2.97854    -0.99644     1.65800
H     -3.00334    -1.88630     1.26371
O     -1.73340    -1.02203     2.36629
H     -1.29530    -0.25028     1.97800
O      3.90536     1.19739     2.15439
H      4.71896     0.73756     2.38710
O      4.20655     1.71624     0.85850
H      3.65689     1.13198     0.30108
O     -1.32402     0.92449     0.13073
H     -1.03475     1.62631    -0.49591
O     -2.74663     0.96281    -0.08360
H     -3.01218     0.22630     0.51014
O     -2.64180    -3.15032     0.00114
H     -1.69182    -2.91459    -0.08914
O     -3.17179    -2.71700    -1.25293
H     -3.34211    -3.55559    -1.69391
O     -0.23684    -1.96801     0.01513
H     -0.46285    -1.08209    -0.33462
O      0.63976    -2.52482    -0.95304
H      1.11854    -1.73099    -1.27851
O     -2.29316     0.35490    -2.59695
H     -2.69209     0.66794    -1.75856
O     -1.53198    -0.74422    -2.08817
H     -2.21333    -1.41074    -1.87079
