 40
-1516.639965212195
O      0.98963     3.92925    -2.95401
H      0.16135     3.74880    -2.47609
O      1.95387     3.49137    -1.99692
H      2.37301     4.31539    -1.73111
O     -1.25690    -0.07673     0.92826
H     -1.55427    -0.83141     1.47376
O     -2.14050     0.94806     1.37540
H     -1.93132     1.66654     0.74435
O      1.76036    -1.23804     0.52557
H      1.59935    -0.27746     0.46609
O      1.33080    -1.54482     1.85963
H      0.58049    -2.14151     1.68406
O     -1.09687     0.41242    -1.87827
H     -0.70905     0.30276    -0.99460
O      0.02827     0.18414    -2.72189
H      0.13310    -0.77898    -2.61803
O     -0.50701     0.90105     3.49321
H     -1.12532     1.09226     2.76789
O      0.75313     0.88516     2.81830
H      0.90808    -0.06845     2.65972
O      1.39413     1.60537    -0.17183
H      1.58112     2.19706    -0.93064
O      0.93074     2.56683     0.79023
H      0.81949     1.99257     1.58861
O     -1.29772     3.09713    -1.61994
H     -1.29157     2.13993    -1.83108
O     -1.47211     3.08024    -0.19683
H     -0.54462     3.09391     0.12408
O     -0.14079    -2.34527    -1.82413
H      0.33991    -3.06848    -1.36985
O     -1.43734    -2.42050    -1.20252
H     -1.79738    -1.55290    -1.44473
O     -0.93949    -3.02631     1.36277
H     -1.20813    -2.90379     0.42763
O     -1.99088    -2.34211     2.02900
H     -2.23482    -2.95934     2.72421
O      2.40717    -3.61821    -0.71092
H      2.32899    -2.80480    -0.18849
O      1.13208    -4.19304    -0.42106
H      1.33973    -5.13152    -0.37339
