 32
-1213.3215554170142
O      0.96403    -2.68009     1.19392
H      0.09030    -2.46393     1.57704
O      1.65619    -1.46653     1.51523
H      2.12278    -1.26981     0.68003
O      2.72271    -0.38387    -0.73630
H      2.93735     0.50270    -0.38728
O      1.51352    -0.02588    -1.43556
H      1.12606    -0.91827    -1.59254
O     -2.91804    -0.01476    -0.77385
H     -2.88077    -0.70764    -0.09167
O     -1.53359     0.06065    -1.12176
H     -1.41712     1.02979    -1.17044
O     -1.35312     2.72682    -1.21683
H     -2.01505     3.38132    -1.45814
O     -0.78680     3.28426    -0.03028
H      0.15092     3.31827    -0.31417
O      1.59266     2.55032    -0.92965
H      1.40394     1.69497    -1.35928
O      2.38651     2.10874     0.17048
H      1.70807     1.88181     0.83548
O     -0.91830    -2.48571    -1.40867
H     -1.09726    -1.52274    -1.46865
O      0.51234    -2.51287    -1.46547
H      0.73790    -2.82694    -0.56876
O     -2.41979    -2.02322     1.01343
H     -1.93883    -2.54450     0.35355
O     -1.36019    -1.58464     1.85783
H     -1.28021    -0.63506     1.63951
O      0.67765     1.08630     1.94852
H      0.95524     0.15038     1.95993
O     -0.67101     0.96966     1.49047
H     -0.83404     1.84494     1.09217
