 40
-1516.6409352467176
O      0.36059     0.80242    -2.84554
H     -0.61367     0.70037    -2.81599
O      0.54915     1.41140    -1.56966
H      1.47490     1.19620    -1.33883
O     -3.04174    -2.32361    -0.09983
H     -3.95985    -2.43413     0.16437
O     -2.86131    -0.93075     0.12026
H     -2.18537    -0.91160     0.82703
O      2.04339    -2.55519     2.10434
H      2.54174    -2.72970     2.90685
O      1.89506    -1.13952     2.15753
H      2.41913    -0.88467     1.35830
O     -0.52008     0.59489     0.91938
H     -0.33364     0.24370     0.02059
O     -0.70146    -0.60049     1.66816
H      0.22892    -0.81788     1.91004
O     -2.13392     0.50824    -2.07919
H     -2.44490    -0.04646    -1.33772
O     -2.90812     1.69080    -1.93395
H     -2.25187     2.32068    -1.60677
O      2.94234     0.79262    -0.53981
H      2.82566     1.23493     0.31845
O      3.01505    -0.58534    -0.16110
H      2.39823    -1.00502    -0.80433
O     -1.08488     3.71598    -0.60015
H     -0.33188     3.16570    -0.86759
O     -0.97593     3.72624     0.81607
H     -1.20144     2.81767     1.05665
O     -1.13593    -3.60905     1.32658
H     -1.79257    -3.22187     0.72415
O      0.04500    -3.48532     0.53359
H      0.70822    -3.22662     1.19813
O      1.57419     1.95682     1.81382
H      0.76793     1.50571     1.48959
O      1.71143     3.04067     0.89039
H      1.02866     3.66252     1.18821
O      1.12740    -1.49282    -1.81919
H      0.96268    -0.78588    -2.47678
O     -0.17039    -1.47407    -1.19616
H     -0.13868    -2.28646    -0.64306
