 32
-1213.3093423751482
O     -1.90330    -1.49229    -0.91071
H     -1.67852    -1.19165    -1.81565
O     -0.76078    -2.27856    -0.56971
H     -0.67241    -2.12186     0.38418
O      0.65684    -0.67196     2.73421
H     -0.24658    -0.35573     2.59244
O      0.60925    -1.94427     2.07002
H      1.48211    -1.91924     1.64307
O     -0.37682     0.36560    -3.41973
H     -0.40685     0.71133    -2.50078
O     -1.46492    -0.55135    -3.38556
H     -2.12562    -0.10754    -3.92705
O      0.37064     2.37165     2.74156
H      0.88120     3.08821     3.13147
O     -0.48044     3.06858     1.82661
H     -0.06398     2.82934     0.97154
O      0.55187     2.02207    -0.43838
H      1.20420     1.36930    -0.10126
O     -0.51713     1.20859    -0.92018
H     -0.92236     0.88386    -0.08556
O      1.70984    -1.47404    -2.81826
H      1.27120    -0.80694    -3.36099
O      1.36481    -0.97796    -1.52923
H      0.63250    -1.57614    -1.26716
O      2.65944    -0.79478     0.74780
H      2.35754    -0.86083    -0.18325
O      2.28186     0.55722     1.04511
H      1.80029     0.41737     1.87988
O     -2.79885    -0.33700     1.36359
H     -2.66760    -0.73783     0.48586
O     -1.64470     0.51075     1.36752
H     -1.96378     1.35241     1.72924
