 28
-1061.6436563893844
O      1.47273    -1.91842    -1.04532
H      1.79012    -1.02753    -1.31184
O      1.84662    -2.00216     0.33152
H      1.01529    -2.28516     0.74270
O      1.16521     0.99307    -2.68911
H      0.68915     1.51657    -2.01777
O      2.24393     0.49076    -1.90227
H      3.01596     0.83919    -2.36016
O     -2.55597     1.10005     2.27374
H     -2.38198     0.17192     1.99876
O     -2.98999     1.69244     1.04819
H     -0.23647    -2.01113    -1.31479
O     -0.52481    -1.36731     1.85465
H     -0.18734    -0.49458     1.58034
O     -1.85352    -1.32365     1.34296
H     -1.71602    -1.53692     0.38628
O     -0.70897     1.03401    -0.03735
H     -1.51289     1.46875     0.33282
O      0.10889     2.13600    -0.44627
H      0.87885     1.95710     0.11014
O     -1.44686    -0.68365    -1.92455
H     -1.13377    -0.00651    -1.29658
O     -1.19443    -1.87444    -1.17236
H     -3.90589     1.40930     0.97358
O      2.72079     1.44123     1.03593
H      2.91219     1.83175     1.89278
O      1.71935     0.49658     1.40163
H      2.07090    -0.32300     1.01186
