 24
-909.9768384884316
O     -0.06156    -1.83770    -1.03714
H      0.33854    -1.83148    -0.14825
O     -1.32442    -2.46303    -0.79709
H     -1.81935    -1.72262    -0.40731
O     -1.40146     0.10398     1.56921
H     -2.08561     0.52339     2.10141
O     -2.05801    -0.09151     0.31926
H     -1.56124     0.50799    -0.27983
O      2.34572     0.13578    -0.49258
H      1.81507     0.78123     0.00899
O      1.75379     0.26369    -1.79039
H      1.46076    -0.64367    -1.94984
O     -1.31380     0.40064    -2.53487
H     -1.01211    -0.48128    -2.26606
O     -0.72109     1.22270    -1.53442
H      0.23935     1.07862    -1.69389
O      1.71610    -0.72154     2.31854
H      2.43291    -0.67384     1.67434
O      0.74986    -1.44727     1.56738
H     -0.04334    -0.89703     1.71144
O     -0.17016     2.58259     1.17025
H     -0.47517     2.52580     0.25836
O      0.96771     1.72693     1.09189
H      0.97095     1.29117     1.95637
