 32
-1213.317662012426
O      2.06781    -0.16299     2.34960
H      1.69600    -0.81414     1.71908
O      2.73590     0.76923     1.49510
H      2.15982     1.54184     1.64958
O      0.62538    -1.89444     0.94065
H     -0.27213    -1.70430     1.27614
O      0.39763    -1.63251    -0.44145
H      1.11951    -1.00985    -0.67318
O      0.26082     0.31779    -3.67323
H      0.46545    -0.27987    -4.39922
O     -0.79422    -0.39103    -3.01489
H     -0.90763     0.16657    -2.21699
O     -1.05812     1.01525    -0.75982
H     -1.50446     0.73266     0.07121
O     -0.34120     2.18403    -0.35826
H      0.50730     1.99808    -0.80570
O      1.78558     1.24641    -1.67030
H      1.35585     0.86299    -2.46151
O      2.36213     0.07935    -1.08378
H      2.68652     0.41239    -0.22171
O     -2.13698     0.29425     1.57556
H     -1.51488     0.59128     2.27274
O     -1.86956    -1.10934     1.49340
H     -2.36237    -1.33046     0.67649
O     -1.97858    -2.75936    -1.02109
H     -1.07226    -2.40702    -0.94583
O     -2.72230    -1.54455    -0.98571
H     -3.14842    -1.52570    -1.85176
O     -0.06797     1.28088     2.98914
H      0.62498     0.59523     3.02698
O      0.60432     2.21115     2.13383
H      0.06745     2.18717     1.31536
