 20
-758.2950862231983
O     -1.90752    -2.81089    -0.18952
H     -2.30706    -1.99373     0.13707
O     -0.53238    -2.40293    -0.12341
H     -0.13893    -2.89123    -0.85144
O      1.93630    -0.10191     1.63858
H      1.90273     0.75083     1.18612
O      0.55511    -0.39585     1.82157
H      0.44288    -1.17762     1.25994
O      1.28145     3.26735    -0.53377
H      1.93707     3.88089    -0.87792
O      2.05749     2.06513    -0.46496
H      1.43708     1.43425    -0.87179
O      0.84019    -0.61234    -2.34987
H      0.68505     0.01336    -3.06325
O      0.34798     0.14087    -1.23580
H     -0.36826    -0.42985    -0.90357
O     -2.20571     0.40628     1.66993
H     -1.27494     0.31374     1.93555
O     -2.07122     0.14522     0.26620
H     -2.15760     1.02234    -0.12163
