 32
-1213.311420290818
O      1.59390     1.70598    -1.02047
H      1.23094     0.87786    -1.40344
O      0.52419     2.10000    -0.15302
H      0.83827     1.77452     0.71226
O     -0.60686    -1.88768     0.95389
H      0.27147    -1.48391     1.11052
O     -0.51874    -2.35525    -0.38976
H     -1.35288    -2.01673    -0.77107
O     -1.74861     0.18473    -1.98629
H     -0.89078    -0.16220    -2.26808
O     -2.46903    -1.03061    -1.70902
H     -3.16223    -0.64449    -1.14481
O     -1.63408     0.54752     2.57369
H     -1.90015     1.17664     1.87366
O     -2.48970    -0.54444     2.22589
H     -1.85171    -1.12566     1.77012
O      0.93834    -0.68270    -1.93513
H      0.71360    -1.44807    -1.36510
O      2.14086    -1.05126    -2.59171
H      2.79480    -0.74592    -1.94436
O      3.67858     0.83409     0.35357
H      2.99405     1.33785    -0.14670
O      4.09880    -0.10498    -0.63481
H      4.90812     0.29925    -0.96176
O      1.08894     0.74992     2.13901
H      0.20782     0.52061     2.48172
O      1.57785    -0.53474     1.73177
H      2.48096    -0.30863     1.45447
O     -3.63959     0.53460     0.11861
H     -3.52445     0.03244     0.94886
O     -2.59418     1.50519     0.31864
H     -2.03765     1.34262    -0.46143
