 36
-1364.9754295162707
O      1.40612    -0.61137    -0.19740
H      2.04212    -1.31985     0.07184
O      1.71424     0.38718     0.78651
H      0.86580     0.89078     0.83752
O     -2.09494    -0.89487     0.81849
H     -1.74387    -1.39455     1.58072
O     -1.48169    -1.65339    -0.22660
H     -1.35099    -0.97349    -0.92507
O     -0.30539     3.35332    -2.71708
H     -0.00739     2.44498    -2.48181
O     -0.61400     3.19510    -4.09854
H      0.14536     3.61132    -4.51741
O     -1.14970     0.16034    -2.10487
H     -1.75716     0.91945    -2.13061
O      0.13568     0.78980    -2.08594
H      0.60913     0.26078    -1.40840
O     -3.29448     2.52090    -0.69978
H     -4.08013     3.06739    -0.79943
O     -2.88006     2.29965    -2.03756
H     -2.23871     3.01405    -2.20161
O      3.17166    -2.26895     0.84109
H      3.25210    -2.10332     1.79853
O      2.78706    -3.64297     0.82421
H      1.82462    -3.55945     0.94976
O     -0.70610     1.40770     1.16594
H     -1.29386     0.66373     0.91700
O     -0.75759     2.30000     0.05027
H     -1.71294     2.38603    -0.10593
O      2.84967    -1.49096     3.37692
H      3.28064    -0.92155     4.02064
O      1.62031    -0.81559     3.15192
H      1.80271    -0.32031     2.31747
O     -0.43855    -2.37645     2.26017
H      0.31093    -1.86390     2.61096
O      0.16878    -3.11384     1.19330
H     -0.27523    -2.68974     0.43266
