 32
-1213.3064519692045
O      0.35082    -1.98454     2.89934
H      0.58293    -2.47374     3.69403
O      1.42245    -1.04784     2.79437
H      1.76039    -1.28748     1.90613
O     -0.89960    -0.26849    -0.92970
H     -0.81233    -0.29094     0.04198
O     -2.29464    -0.03029    -1.14499
H     -2.32407     0.93933    -0.97045
O      0.26503     1.14829     1.39366
H      0.63900     0.68879     2.16217
O     -0.93889     1.74624     1.89557
H     -1.50017     0.95057     1.96128
O     -1.05135     3.18177    -1.29461
H     -0.70573     2.44045    -1.80979
O     -2.06922     2.55290    -0.51262
H     -1.67459     2.56262     0.37777
O      1.08585     1.43016    -2.33456
H      1.26454     0.50541    -2.59106
O      1.83986     1.54582    -1.13303
H      1.13459     1.58559    -0.46880
O      1.70761    -1.41619     0.17749
H      1.36789    -1.83307    -0.63968
O      2.89772    -0.77338    -0.30046
H      2.54446     0.10110    -0.57471
O      1.38125    -1.12340    -3.14293
H      2.23854    -1.55846    -3.10104
O      0.60765    -1.94759    -2.26602
H     -0.07188    -1.30802    -1.96658
O     -1.79100    -0.75170     1.88028
H     -1.10517    -1.32614     2.26912
O     -2.79861    -1.66852     1.47113
H     -2.94898    -1.35621     0.56864
