 36
-1364.9805457538164
O      3.13076    -0.77388     1.27349
H      2.48206    -1.50601     1.31484
O      2.31305     0.25654     1.84752
H      2.47253     1.00997     1.24685
O     -0.20346     1.96961     2.27989
H     -0.57746     2.35258     3.07889
O     -0.40285     3.01957     1.32834
H     -0.94548     2.53376     0.67948
O     -1.42677     1.33000    -0.45378
H     -1.88695     0.64700     0.09227
O     -0.35114     0.58960    -1.02490
H      0.41340     1.19884    -0.92568
O     -3.67153    -0.95596    -1.77168
H     -2.98204    -1.55543    -2.09813
O     -3.47791     0.23932    -2.52647
H     -2.82108     0.71577    -1.99891
O     -1.42827    -2.65368    -1.21685
H     -1.81288    -2.53265    -0.32744
O     -0.14801    -2.07620    -1.00980
H     -0.29746    -1.12385    -1.17299
O     -2.36541    -1.69173     1.07162
H     -1.52980    -1.37907     1.48610
O     -2.99267    -0.45738     0.72282
H     -3.43706    -0.71070    -0.11459
O      2.70665     2.21726     0.03963
H      3.18841     1.75718    -0.66487
O      1.49585     2.55280    -0.64484
H      1.05513     3.09083     0.03049
O      0.83889    -2.11058     1.44856
H      0.47927    -2.19373     0.53674
O      0.02435    -1.04694     1.96370
H      0.67445    -0.31289     2.03205
O      3.60490    -0.09406    -1.30388
H      3.56765    -0.43487    -0.38842
O      2.33596    -0.55223    -1.78514
H      2.59270    -1.24575    -2.40087
