 32
-1213.3192408358525
O      2.12347    -0.74626     2.59972
H      1.32252    -0.17790     2.66982
O      2.91550     0.04629     1.71974
H      3.75385     0.08734     2.19061
O      1.17204    -2.78730     1.09468
H      1.56656    -2.24915     1.79761
O     -0.21970    -2.62044     1.39271
H     -0.59527    -2.64346     0.50139
O      0.53588     1.13578    -3.48491
H      0.41212     1.82283    -4.14775
O     -0.79575     0.81845    -3.10212
H     -0.87961     1.30000    -2.24998
O     -1.13161     2.10908    -0.80589
H     -1.88179     1.77852    -0.24634
O     -0.07272     2.16147     0.15269
H      0.70116     1.87532    -0.37519
O      1.94754     1.09593    -1.23957
H      1.53004     0.97648    -2.11762
O      2.01259    -0.25828    -0.79094
H      2.43635    -0.15166     0.08221
O     -2.92649     0.94679     0.72248
H     -2.46979     0.49541     1.46463
O     -3.34816    -0.13550    -0.09471
H     -2.49994    -0.47781    -0.41528
O     -0.54361    -1.06978    -0.90161
H      0.41532    -0.89098    -0.78012
O     -0.59236    -1.75879    -2.14940
H     -0.74200    -1.00696    -2.74111
O     -1.18619    -0.27880     2.30458
H     -0.77157    -1.11577     2.00688
O     -0.08853     0.62914     2.32552
H     -0.19970     1.14394     1.49545
