 36
-1364.9735284749815
O      1.81564     0.99360    -1.36205
H      1.50224     1.33394    -2.21856
O      3.18737     0.66926    -1.61214
H      3.38771     0.22306    -0.77523
O      0.69105    -2.11525     2.10788
H      0.15397    -2.57089     1.43147
O     -0.33430    -1.49561     2.89347
H     -0.26073    -0.56062     2.61438
O     -1.86669     0.04794    -0.00618
H     -2.02724     0.45208    -0.87598
O     -3.14182     0.12058     0.63790
H     -3.18681    -0.78983     0.97774
O     -1.88054     3.01111    -0.46169
H     -2.03613     3.96067    -0.43493
O     -0.52863     2.97617    -0.91983
H     -0.06406     2.64875    -0.12025
O     -0.27943     1.47448    -3.15961
H     -0.49695     2.15706    -2.50020
O     -1.26654     0.49407    -2.82980
H     -0.71877    -0.25898    -2.54593
O      1.09929    -1.53139    -1.05488
H      1.32206    -0.57739    -1.19576
O     -0.18446    -1.66277    -1.67439
H     -0.08535    -2.49925    -2.13562
O     -0.28255     0.99782     1.88134
H     -0.88514     0.77522     1.13094
O      0.60311     1.95372     1.29789
H      1.42834     1.44595     1.24890
O      2.53396    -0.18759     1.63760
H      1.95201    -0.96602     1.77083
O      3.51985    -0.71662     0.75728
H      4.30652    -0.64065     1.30462
O     -2.46235    -2.35137     1.55605
H     -1.89413    -2.07846     2.30214
O     -1.44367    -2.81741     0.66029
H     -1.40027    -2.08636     0.02360
