 36
-1364.9771665454336
O      1.25177     2.41030     0.87503
H      1.28326     2.20973    -0.08608
O      1.75462     1.17879     1.40427
H      1.05098     0.88092     2.02030
O     -0.14488    -2.00890    -1.41100
H      0.67071    -1.68594    -0.96730
O     -1.10020    -1.95231    -0.34641
H     -1.36433    -0.99892    -0.34863
O     -1.34524    -0.08509     2.29657
H     -1.57209     0.82068     2.55426
O     -0.02289    -0.20558     2.84775
H      0.15428    -1.13553     2.61746
O      1.94852    -0.84897    -0.30814
H      1.84574    -0.10692     0.33319
O      2.90251    -1.67707     0.34752
H      2.31296    -2.36529     0.69210
O     -1.36520     2.62049     1.23060
H     -0.38943     2.71819     1.27839
O     -1.73062     2.60911     2.60293
H     -2.54705     3.11455     2.56335
O     -1.62876     0.62360    -0.56846
H     -1.55309     1.33466     0.10152
O     -2.89755     0.92922    -1.15493
H     -2.64747     0.88192    -2.08459
O      2.27029     1.26462    -2.33260
H      2.55515     0.48561    -1.83376
O      1.04588     1.58515    -1.67226
H      0.38952     1.09525    -2.20744
O     -0.56774    -0.04264    -3.14922
H     -0.52695    -0.88102    -2.62727
O     -1.74901    -0.21773    -3.92297
H     -1.40121    -0.07209    -4.80587
O      1.14797    -3.53126     1.34820
H      1.26671    -4.15145     2.07102
O      0.11336    -2.70725     1.87086
H     -0.42904    -2.55704     1.05997
