 40
-1516.6384620188276
O      0.23604    -0.01813    -2.77497
H     -0.55995     0.44003    -2.42531
O      1.17192     0.22550    -1.72018
H      1.79583     0.88464    -2.08684
O     -1.25411    -0.83506     0.14071
H     -1.24077    -1.61590    -0.47049
O     -1.79315    -1.36334     1.35071
H     -1.01102    -1.77132     1.75302
O      0.02328     0.46210     3.13002
H      0.58693     0.20097     2.38353
O     -0.35573     1.77873     2.74247
H     -1.25966     1.63764     2.41292
O      3.32667     1.70802    -0.66873
H      2.65698     2.26611    -0.22868
O      3.10691     2.06919    -2.02786
H      3.99429     1.99951    -2.38481
O     -3.38919     1.24909     0.37578
H     -4.08356     1.88284     0.58004
O     -2.76831     1.07254     1.64319
H     -2.60817     0.10655     1.62916
O      1.26368     2.59462     0.82647
H      0.75749     2.38356     1.65174
O      0.22039     2.47071    -0.14293
H      0.25995     1.51922    -0.34547
O     -2.09875     2.51590    -2.11003
H     -1.50844     2.78266    -1.38952
O     -2.09035     1.09982    -1.95582
H     -2.58591     0.99461    -1.11733
O      0.49452    -2.52835    -1.85770
H      0.21276    -1.71341    -2.31633
O     -0.71579    -3.00433    -1.27409
H     -0.36531    -3.52101    -0.52499
O      0.46070    -3.15817     1.92442
H      1.12423    -2.65101     1.40374
O      0.09906    -4.19403     1.01531
H      0.57348    -4.95559     1.36353
O      2.11813    -0.32616     1.08034
H      2.74615     0.15329     0.51194
O      2.06415    -1.60642     0.45524
H      1.55295    -1.42312    -0.35360
