 28
-1061.6471633750834
O      1.72303    -0.34130    -1.76198
H      1.99516    -0.72071    -0.90739
O      0.34299    -0.07959    -1.49697
H     -0.05984    -0.96022    -1.63875
O      0.84925    -1.70563     1.37010
H      0.57450    -2.45473     0.82092
O      2.08779    -1.34074     0.75161
H      2.29066    -0.50630     1.22693
O     -0.10932     2.08495     1.07527
H     -0.75828     1.36797     1.22019
O     -0.14129     2.25617    -0.33906
H     -0.31945    -3.30979    -2.22304
O     -2.58311     0.91813    -1.35572
H     -2.82507     1.09284    -2.26998
O     -2.77434     2.19803    -0.74364
H     -1.83421     2.44036    -0.60201
O     -2.22000    -0.94927     0.48814
H     -2.42597    -0.24603    -0.16293
O     -1.37839    -0.25342     1.40485
H     -0.54700    -0.76532     1.35688
O     -0.90206    -3.03808    -0.45289
H     -1.50826    -2.33909    -0.12769
O     -0.66694    -2.53643    -1.76723
H      0.13057     1.38169    -0.69283
O      2.29703     1.11737     1.79038
H      1.47823     1.59662     1.52642
O      3.30411     1.78957     1.03948
H      3.77309     2.24997     1.73977
