 36
-1364.9720065762208
O     -0.30800     0.82980     2.49535
H     -1.24348     0.56429     2.34673
O     -0.44293     2.06183     3.19264
H     -0.60748     2.65168     2.43376
O     -2.95321     0.24292     0.36325
H     -2.77909    -0.71876     0.35168
O     -2.85204     0.54730     1.76556
H     -3.10193     1.47967     1.73276
O      0.74331    -1.81508     3.09645
H      0.54609    -0.89805     3.32462
O      0.47495    -1.76869     1.69748
H      1.35915    -1.89020     1.29687
O      0.08965     1.25670    -0.66904
H      0.63766     1.36275    -1.47571
O      1.11026     0.85419     0.25953
H      0.61837     0.87452     1.11812
O     -1.67893    -2.07408     0.19039
H     -0.95725    -2.08957     0.85579
O     -0.99206    -1.59424    -0.96263
H     -0.74226    -0.68670    -0.71538
O     -2.43058     3.26977     0.68527
H     -2.56341     4.19808     0.46969
O     -1.01237     3.21551     0.81594
H     -0.77291     2.52838     0.16080
O      1.80197     1.05542    -2.67728
H      2.40944     1.56897    -3.21673
O      0.71147     0.83639    -3.57399
H      0.66420    -0.14450    -3.54622
O      1.70546    -2.41542    -2.86080
H      2.08116    -1.74073    -2.27259
O      0.47121    -1.80131    -3.23622
H     -0.09199    -1.96554    -2.45886
O      2.69728    -1.01797    -0.77415
H      2.12973    -0.31403    -0.39345
O      2.74552    -1.94334     0.30903
H      3.05746    -2.74119    -0.12763
