 40
-1516.6310709996117
O      2.40799     3.19671     0.99515
H      2.34784     2.26011     1.29072
O      1.26911     3.76577     1.63772
H      1.67090     4.31515     2.31851
O      2.17936    -0.01197     0.31104
H      1.66916     0.61492    -0.25586
O      1.99934     0.61729     1.58632
H      1.27783     0.06934     1.97550
O      0.79272     1.80190    -0.98777
H      0.11161     1.59824    -1.67212
O      1.63141     2.75708    -1.64991
H      2.01093     3.16258    -0.85534
O     -1.18776     1.96451     1.71386
H     -0.43186     2.48044     1.39138
O     -1.68171     1.33043     0.54178
H     -1.17823     0.49940     0.56406
O     -2.27978     0.55816    -2.06215
H     -2.14859     0.95078    -1.17796
O     -1.02013     0.83312    -2.68177
H     -0.59824    -0.04240    -2.71542
O      1.44721    -0.68898    -2.67730
H      2.19365    -1.25212    -2.43337
O      2.02335     0.19358    -3.65181
H      2.03154     1.02259    -3.15454
O     -0.77559    -0.10917     3.37758
H     -0.92367     0.67262     2.81448
O      0.02815    -0.89921     2.48850
H     -0.52708    -1.69422     2.36463
O     -0.34553    -1.16907    -0.37798
H     -1.16894    -1.70457    -0.41606
O      0.65706    -2.13457    -0.04435
H      1.37155    -1.51100     0.21273
O     -0.82553    -4.02228     1.17298
H     -0.18601    -3.40113     0.77003
O     -1.27144    -3.24349     2.28704
H     -1.11909    -3.84198     3.02410
O     -2.58457    -2.33071    -1.86912
H     -2.83240    -1.41544    -2.05326
O     -2.73256    -2.32172    -0.44825
H     -2.96833    -3.23516    -0.24792
