 36
-1364.9745949396677
O     -0.38702     3.59112     0.67393
H     -0.33456     2.80048     0.10236
O      0.19378     3.12230     1.89247
H     -0.55485     2.69303     2.33470
O     -1.83633    -0.97774    -2.22514
H     -0.91109    -0.79199    -2.53381
O     -2.42794     0.31531    -2.34308
H     -2.75564     0.31228    -3.24671
O      2.08556     1.40298     1.30701
H      1.49518     2.16066     1.53286
O      1.52348     0.37834     2.14390
H      1.56239    -0.39494     1.55288
O      1.13328    -1.74135    -2.90365
H      0.88422    -2.00583    -1.99841
O      0.60000    -0.41903    -2.95944
H      1.26226     0.09594    -2.45521
O     -1.26861     0.77196     2.54995
H     -0.40647     0.41631     2.82721
O     -2.20082    -0.19932     2.99617
H     -2.30908    -0.75279     2.20382
O     -0.89434     0.27456     0.02659
H     -1.08090     0.70647     0.88936
O     -0.54845     1.38071    -0.80781
H     -1.26422     1.28645    -1.46442
O      0.46756    -1.94777    -0.33046
H     -0.05586    -1.13208    -0.14001
O      1.62695    -1.73297     0.46134
H      2.26330    -1.36334    -0.18597
O      2.33760     0.75868    -1.22601
H      2.08653     1.05240    -0.31725
O      3.33019    -0.22443    -0.93168
H      4.06796     0.29536    -0.59634
O     -2.46421    -2.05443     0.57915
H     -2.42553    -1.95756    -0.38713
O     -1.94778    -3.36204     0.80746
H     -0.99444    -3.20200     0.78391
