 20
-758.2940330250095
O     -3.02313    -0.32197     1.55044
H     -3.92531     0.00764     1.51217
O     -2.33895     0.81733     2.09658
H     -1.43953     0.44813     2.13457
O      2.35512     0.13593     0.09940
H      3.06376     0.33288     0.71642
O      2.16013     1.42089    -0.50194
H      1.95424     1.14997    -1.40612
O      1.12751     0.09708     2.96346
H      1.39327    -0.77595     3.26746
O      0.14760    -0.26167     1.98733
H      0.58725    -0.02551     1.15193
O      1.00060    -0.55718    -3.57544
H      0.53736    -0.45396    -4.41215
O      0.62031     0.64949    -2.90635
H      0.04805     0.29435    -2.19854
O     -1.79776    -0.78945    -0.83737
H     -2.09733    -0.56953     0.06182
O     -0.39314    -0.54284    -0.71450
H     -0.01894    -1.42993    -0.76058
