 36
-1364.9698261300036
O      2.43876     2.10821     1.95529
H      1.53037     2.33064     1.70163
O      2.51885     0.73820     1.56739
H      2.05215     0.25612     2.27269
O      0.90089    -1.51240     2.46953
H      1.12279    -1.81171     1.57493
O     -0.48794    -1.19847     2.33323
H     -0.86348    -2.03122     1.98986
O     -0.24564     1.36660     1.13498
H     -0.78140     0.60147     1.41114
O     -1.19236     2.17819     0.43068
H     -0.89925     2.03892    -0.48960
O     -0.13842     1.48346    -1.96962
H     -0.66936     0.85952    -2.49334
O      0.00185     2.62949    -2.81858
H      0.85815     2.94285    -2.49483
O     -1.07832    -1.91138    -1.68573
H     -0.30390    -1.53152    -1.22022
O     -1.81669    -0.75054    -2.08898
H     -2.22696    -0.49655    -1.23917
O     -2.45588    -0.27670     0.42660
H     -2.85045    -1.05620     0.84548
O     -3.47460     0.72997     0.55307
H     -2.88357     1.49705     0.63894
O      2.78928     1.04826    -1.66553
H      1.87893     0.85428    -1.92755
O      2.58558     2.30716    -1.00249
H      2.99891     2.14584    -0.14160
O      1.03972    -0.89529    -0.32612
H      1.14471    -0.06246     0.17651
O      2.32657    -1.48964    -0.29787
H      2.86913    -0.76142    -0.64320
O     -2.45484    -3.08140     0.27337
H     -2.05827    -2.78231    -0.57505
O     -1.26528    -3.36939     1.00795
H     -1.32930    -4.31861     1.14206
