 40
-1516.6440896963818
O      1.96635    -0.73628    -2.73607
H      1.04750    -0.44491    -2.81867
O      2.23325    -0.38466    -1.37417
H      2.19201     0.59695    -1.40192
O     -3.85856     0.43213     1.70149
H     -3.65679    -0.51513     1.75156
O     -2.53633     0.95268     1.59128
H     -2.46884     1.10887     0.62641
O      0.68335     0.66793     1.02173
H      0.32344     1.44770     1.49559
O      2.05090     0.69206     1.43035
H      2.08571    -0.22895     1.76817
O     -2.09881     1.50023    -0.98531
H     -1.70715     0.64839    -1.27564
O     -1.07491     2.41826    -1.39554
H     -1.22458     3.16635    -0.79625
O     -1.15577    -1.38608     2.29714
H     -1.32008    -0.43256     2.38238
O     -2.25527    -1.76906     1.46735
H     -1.84618    -1.80260     0.58582
O      1.61166     2.20844    -1.40911
H      0.63985     2.28861    -1.40880
O      1.96978     2.84331    -0.17633
H      2.23618     2.07931     0.36892
O     -0.44093     2.91286     1.92889
H     -1.37850     2.66624     1.88619
O     -0.31820     3.85230     0.85683
H      0.57251     3.61174     0.53404
O     -0.52598    -0.55444    -1.36387
H      0.15690    -0.38110    -0.68702
O     -1.00856    -1.83923    -0.98004
H     -0.46468    -2.41624    -1.57034
O      1.47609    -1.83979     1.88153
H      0.51773    -1.82036     2.07496
O      1.51960    -2.48137     0.60349
H      1.97131    -1.81550     0.05627
O      0.64752    -3.27990    -2.45860
H      1.45067    -2.75942    -2.62645
O      1.10348    -4.38562    -1.68732
H      1.04783    -4.03173    -0.78784
