 40
-1516.643362096991
O     -0.28880     0.70536     1.65965
H     -0.03287     1.54226     1.21158
O      0.32574     0.76931     2.95099
H      0.80020    -0.08954     2.91959
O      1.19121    -2.02645    -1.64698
H      0.48993    -2.69468    -1.49244
O      0.50663    -0.85703    -1.19246
H     -0.21163    -0.75838    -1.85204
O      3.60777     1.24980     3.19429
H      4.10301     1.89355     3.70805
O      2.70263     2.10930     2.51018
H      1.84035     1.77685     2.82464
O      0.29821     2.23275    -1.07566
H      1.21706     1.98681    -0.81328
O     -0.14134     2.89031     0.12705
H     -1.08100     3.00291    -0.11614
O     -2.34333    -0.89615    -0.17577
H     -2.63669    -1.64685     0.36210
O     -2.71760     0.24921     0.60378
H     -1.90549     0.39910     1.12973
O      0.85144    -1.96365     1.51359
H      0.47390    -1.24175     0.98286
O      1.88743    -1.27324     2.20536
H      2.40533    -0.86959     1.48119
O     -2.08082     1.93101    -2.22201
H     -1.12334     2.05887    -2.10215
O     -2.53805     2.44670    -0.97001
H     -2.77470     1.62787    -0.49546
O     -1.30958    -3.50309     0.14721
H     -0.50475    -3.12425     0.53675
O     -0.95424    -3.55929    -1.22943
H     -1.63270    -3.00573    -1.64323
O      2.68594     0.03952    -0.01429
H      1.94692    -0.23826    -0.59730
O      2.65139     1.46726    -0.13833
H      2.81296     1.74773     0.78408
O     -1.49657    -0.72379    -3.04330
H     -2.08757     0.02703    -2.85238
O     -2.39540    -1.81845    -3.10501
H     -2.27313    -2.10286    -4.01410
