 20
-758.3077926611662
O     -0.20752    -1.98486     1.23286
H      0.39779    -1.50922     0.63403
O     -0.70984    -0.91542     2.03410
H     -1.29755    -0.45460     1.40284
O      2.14322    -0.91628    -1.50638
H      1.54320    -0.54180    -2.16429
O      1.45429    -0.51497    -0.31433
H      2.13083    -0.03774     0.18981
O      1.38692     0.71676     2.28569
H      0.67306     0.03923     2.33500
O      0.66940     1.79688     1.69172
H      0.41090     2.31992     2.45805
O     -0.98030     1.44184    -0.36467
H     -0.38313     1.47166     0.40714
O     -1.90470     0.41589     0.02260
H     -1.79849    -0.18864    -0.73036
O     -0.26845     0.33500    -2.77034
H     -0.38978     0.96822    -2.04192
O     -1.19839    -0.67393    -2.34642
H     -1.79863    -0.70744    -3.09878
