 36
-1364.9808319941142
O      0.60030     3.51306     0.29515
H      0.39431     3.14438     1.17597
O     -0.24057     2.71853    -0.54370
H      0.21640     1.86313    -0.55804
O     -1.36294     0.16406     1.37555
H     -1.96982     0.49668     0.68266
O     -1.47061    -1.25239     1.22432
H     -0.56700    -1.51483     1.50345
O      1.98089    -1.39050     1.07359
H      1.70273    -2.24478     0.67346
O      1.01436    -1.30737     2.12993
H      1.25907    -0.45797     2.55131
O      2.12318     0.84557    -0.34147
H      2.09994     0.04015     0.22537
O      2.81515     1.79844     0.46651
H      2.34371     2.60490     0.20017
O      0.28716     1.93772     2.42842
H     -0.29067     1.21749     2.10178
O      1.49172     1.24669     2.76611
H      2.07912     1.53280     2.04138
O     -2.76311     1.39215    -0.55162
H     -2.14853     2.12355    -0.72432
O     -2.92657     0.82677    -1.85532
H     -3.07520    -0.11142    -1.61471
O      0.95895    -0.17522    -2.51990
H      1.58118     0.35386    -1.98836
O     -0.22775     0.06207    -1.75697
H     -0.78992     0.59108    -2.34833
O     -1.65594    -2.22051    -1.58965
H     -1.13661    -1.39944    -1.67740
O     -2.85082    -1.72907    -0.96897
H     -2.54731    -1.67110    -0.04054
O      1.47890    -3.21508    -1.33575
H      1.37104    -2.32031    -1.68474
O      0.60666    -3.21853    -0.21021
H     -0.28224    -3.25774    -0.60767
