 20
-758.3053516256631
O      0.96442    -2.11981     0.96644
H      1.62150    -1.39666     0.94694
O      0.22292    -1.77858     2.13881
H      0.35991    -2.56073     2.68312
O      0.17602    -1.07907    -2.04088
H      0.93825    -0.56908    -1.73551
O     -0.67739    -0.99269    -0.89198
H     -0.23232    -1.59630    -0.26331
O     -0.06208     1.61847     0.48738
H     -0.84249     1.71301    -0.10367
O     -0.67437     1.27063     1.73204
H     -0.53720     0.31413     1.75361
O      2.62842     0.24101    -0.72923
H      3.39161     0.82500    -0.72344
O      2.22096     0.28179     0.63968
H      1.42110     0.86188     0.58043
O     -2.52569     0.80572    -1.82292
H     -1.88631     0.16158    -1.46894
O     -2.30825     1.91517    -0.94042
H     -3.13199     1.94427    -0.44328
