 24
-909.9769839054118
O     -3.53108     0.07739     0.94870
H     -3.19963    -0.83277     0.91630
O     -2.93970     0.58109    -0.25368
H     -2.18443     1.08194     0.09644
O      0.82088    -1.20709    -1.47461
H     -0.13359    -1.39053    -1.59151
O      0.84734     0.21797    -1.60767
H      1.79325     0.41571    -1.44084
O     -0.41383     1.57012     0.31298
H     -0.00975     1.11866    -0.45248
O      0.72238     1.74568     1.16274
H      0.84447     0.85214     1.52149
O     -1.93940    -1.99061     0.24091
H     -1.07572    -1.73207     0.59756
O     -1.81410    -1.62236    -1.13859
H     -2.29177    -0.76510    -1.10717
O      1.45125    -0.77168     1.90299
H      1.52694    -1.27005     2.71980
O      0.57752    -1.60678     1.15768
H      0.99272    -1.58271     0.27529
O      2.71356     2.24277    -0.58397
H      2.06215     2.12636     0.13554
O      3.23508     0.91378    -0.68550
H      4.12771     1.08767    -1.00100
