 32
-1213.31006310242
O      1.92236     0.29913     1.81008
H      1.99628     0.79570     0.97295
O      1.54204    -0.98860     1.32067
H      0.58252    -0.83668     1.18886
O     -1.08603     0.92028    -2.51816
H     -0.14664     1.02340    -2.27268
O     -1.70894     0.78427    -1.23889
H     -1.86689     1.71079    -0.97622
O      0.88163    -4.26962    -0.25889
H      1.53978    -4.96375    -0.14840
O      0.67384    -3.80043     1.06924
H      1.26132    -3.02554     1.11241
O     -0.31971     2.09417     2.09227
H      0.34158     1.42614     2.35013
O     -1.54237     1.63731     2.66058
H     -1.76365     0.90672     2.06667
O      1.57557     1.67862    -0.40310
H      0.88430     2.36406    -0.50207
O      1.45746     0.91520    -1.60021
H      1.51645     0.00833    -1.26424
O     -1.01074    -0.65363     0.88793
H     -1.23130    -0.24087     0.01731
O     -1.76926    -1.85511     0.87751
H     -1.06504    -2.51698     0.92378
O      0.21868    -1.82452    -2.73121
H     -0.49698    -1.17633    -2.68358
O      0.65492    -1.80888    -1.36527
H      0.66926    -2.75937    -1.14984
O     -1.41898     3.24146    -0.01234
H     -1.08663     2.90192     0.84868
O     -0.19480     3.67430    -0.60659
H     -0.17671     4.61377    -0.40022
