 16
-606.6350928142525
O     -2.40971    -0.41538     2.00693
H     -3.18358    -0.01494     2.41287
O     -1.91335     0.67542     1.22771
H     -1.07185     0.85918     1.67371
O      0.90327     1.03955     1.47633
H      1.32841     1.30906     0.64684
O      1.39400    -0.29820     1.62928
H      0.79122    -0.78923     1.04906
O      1.52561     0.96260    -1.33047
H      0.86185     0.26023    -1.20884
O      2.10928     0.52643    -2.56577
H      3.01761     0.37199    -2.29250
O     -0.99933    -1.49477    -1.80051
H     -0.75757    -0.96067    -2.56341
O     -0.43936    -0.72492    -0.73051
H     -1.22034    -0.33254    -0.30218
