 16
-606.6373372410008
O     -1.27218    -0.74330     1.27734
H     -1.41415    -1.04709     2.17913
O     -1.73411     0.61015     1.34532
H     -0.89861     1.09107     1.22702
O      0.87595     1.65713     0.51170
H      1.22967     0.88686     0.01099
O      1.79738     1.73310     1.60609
H      2.31679     2.50237     1.35498
O      1.57266    -0.59071    -0.83033
H      0.95069    -0.85548    -1.52813
O      1.41698    -1.64826     0.12729
H      0.68120    -1.31282     0.66039
O     -1.07501    -1.13483    -1.68413
H     -1.36214    -0.87782    -0.79574
O     -1.27982     0.08323    -2.40800
H     -2.04643    -0.13627    -2.94656
