 28
-1061.6478457728354
O      1.98879    -0.52658    -1.60132
H      2.22692    -0.02988    -0.79816
O      1.16079    -1.55193    -1.05226
H      0.27046    -1.25696    -1.30409
O      2.29748     0.80979     0.75104
H      2.00268     0.14113     1.40291
O      1.19188     1.71989     0.80607
H      1.41345     2.36689     0.10007
O     -1.14313     0.76346     0.10993
H     -0.26103     1.09186     0.38703
O     -1.07727     1.03060    -1.29666
H     -3.35322    -1.33813    -2.20385
O     -0.06386     3.56015    -1.08862
H     -0.43350     2.69880    -1.34384
O      1.32437     3.30926    -1.31990
H      1.63595     4.18215    -1.57821
O     -1.65993    -2.25381     1.45840
H     -0.75105    -2.61079     1.48872
O     -1.41593    -1.00094     2.11209
H     -1.48232    -0.36796     1.37251
O     -1.80876    -1.67967    -1.20763
H     -1.94730    -1.94790    -0.27698
O     -2.96402    -0.88012    -1.45184
H     -1.87609     0.55136    -1.56581
O      0.98887    -2.28124     1.47175
H      1.16434    -1.94403     0.56618
O      1.22730    -1.12801     2.28561
H      0.30943    -0.92436     2.54528
