 32
-1213.3107914735458
O      2.21367    -1.86594     0.35155
H      2.21557    -1.91051    -0.61567
O      3.09346    -0.77587     0.62398
H      2.67268    -0.05911     0.09092
O      0.99243    -2.69850    -2.03821
H      1.02417    -3.65772    -1.99059
O     -0.41107    -2.45245    -1.98800
H     -0.50527    -2.11336    -1.07445
O     -0.71257     0.32094    -1.64947
H     -1.62776     0.32497    -1.29703
O     -0.91225     0.05943    -3.03218
H     -0.70577    -0.88628    -3.04527
O     -3.13824     0.17090    -0.56701
H     -4.07148     0.30424    -0.76115
O     -3.04546     0.47256     0.82410
H     -2.61432     1.34917     0.79285
O      1.39374     2.03136     0.11469
H      1.35973     1.59211     0.99785
O      1.67717     0.93122    -0.74810
H      0.77457     0.67805    -1.06302
O     -0.38329    -1.56538     0.53438
H      0.57432    -1.67822     0.70658
O     -0.84095    -0.98093     1.75069
H     -1.71098    -0.64285     1.47815
O      2.10897    -0.02077     3.08069
H      2.64033    -0.32382     2.32660
O      1.11234     0.73778     2.40268
H      0.38943     0.08456     2.29153
O     -1.60479     2.77753     0.90218
H     -1.79863     3.67945     1.17322
O     -1.08085     2.96228    -0.41080
H     -0.14647     2.69154    -0.27764
