 28
-1061.6459401378838
O     -0.79130    -2.54942     0.04401
H      0.18181    -2.55875    -0.01085
O     -0.93231    -2.07458     1.38274
H     -1.58843    -1.36273     1.28406
O      1.52490    -1.29519     1.81572
H      0.59285    -1.55445     1.94545
O      1.70804    -1.77233     0.48033
H      1.88257    -0.95038    -0.00476
O     -2.13174     1.19389     1.50730
H     -2.20001     1.44816     0.55508
O     -2.72729    -0.09796     1.43487
H     -0.30432     2.21665    -0.60640
O      0.62596     1.45526     1.05365
H     -0.13288     1.24921     1.62431
O      1.74541     1.35565     1.92556
H      1.80624     0.38372     2.01057
O     -1.14850    -0.87846    -2.10160
H     -1.15675    -1.58906    -1.43736
O      0.21350    -0.92108    -2.53117
H      0.47326     0.00048    -2.41707
O     -1.95163     1.46300    -1.08661
H     -1.67638     0.62805    -1.53039
O     -0.88428     2.35597    -1.37214
H     -3.51417     0.01977     1.97454
O      2.02323     1.21347    -1.88058
H      2.75617     1.10033    -2.49286
O      2.51688     0.51587    -0.74253
H      2.45668     1.19378    -0.05127
