 40
-1516.640296323388
O      2.01928     2.07422     0.41338
H      2.40008     1.27188     0.01190
O      1.50227     1.53910     1.63395
H      0.55311     1.79522     1.60614
O      0.33793    -1.57011    -1.46978
H      0.66761    -2.46775    -1.32513
O     -0.68770    -1.51622    -0.47564
H     -1.39737    -0.99960    -0.93333
O     -2.69469    -0.00601    -1.33702
H     -2.60455     0.86767    -1.76464
O     -2.97444     0.40089     0.00213
H     -3.17187    -0.44875     0.44633
O     -1.14897     1.62269     1.63562
H     -1.86323     1.30198     1.05004
O     -1.30343     0.81920     2.80597
H     -0.65586     0.10186     2.63595
O     -1.63953     3.23293    -1.05306
H     -1.88998     4.10782    -1.37097
O     -1.85329     2.44089    -2.22670
H     -0.92971     2.18839    -2.42909
O      0.73974     1.72344    -2.13927
H      0.96743     2.20974    -1.32912
O      1.90863     1.89084    -2.93448
H      2.37693     1.06396    -2.75714
O      2.49570    -0.14922    -0.99405
H      1.60861    -0.51469    -1.20061
O      3.31312    -0.94851    -1.83720
H      3.38255    -1.74509    -1.29324
O      0.15814    -1.26067     2.02931
H     -0.19851    -1.34750     1.12093
O      1.55108    -1.11365     1.76202
H      1.63240    -0.13138     1.74667
O      1.83781    -3.30737     0.18955
H      1.84300    -2.57896     0.84713
O      3.18665    -3.28158    -0.28239
H      3.48857    -4.16395    -0.04909
O     -3.55087    -0.71971     2.59543
H     -2.80884    -0.12091     2.80364
O     -2.88688    -1.59286     1.67813
H     -3.06301    -2.46044     2.05657
