 24
-909.9780802472786
O     -1.22400    -2.97162    -0.76313
H     -1.59043    -3.65992    -1.32689
O     -1.89661    -1.81461    -1.25720
H     -1.98169    -1.29440    -0.42876
O      0.12912     0.79683    -1.40514
H      0.59544     0.02812    -1.00983
O     -0.27074     0.24770    -2.65687
H     -0.98880    -0.32631    -2.36026
O      1.15208    -1.60892     0.96935
H      1.43297    -0.70983     1.19535
O      0.98037    -1.49812    -0.45092
H      0.24541    -2.12735    -0.59787
O     -1.30646    -0.96456     1.93333
H     -0.54336    -1.39625     1.51173
O     -1.82353    -0.17892     0.85313
H     -1.20252     0.57692     0.85062
O      0.10605     1.55342     1.44920
H      0.80762     2.10409     1.05314
O      0.82431     0.84951     2.47463
H      0.08325     0.34347     2.83633
O      2.09640     2.54760    -0.00850
H      2.90020     3.00680    -0.27539
O      1.10546     3.18354    -0.83283
H      0.70682     2.38726    -1.23857
