 32
-1213.3012835844017
O     -0.90745    -2.57351     3.26392
H     -0.77392    -2.23886     4.15468
O      0.11490    -1.86553     2.56457
H      0.07520    -2.31518     1.69432
O     -0.45270    -2.71907     0.10374
H     -1.34167    -2.29936     0.11721
O      0.07191    -2.17483    -1.11150
H      1.01983    -2.30426    -0.97940
O     -1.04850     0.76701    -1.36123
H     -0.55291     0.59650    -0.52627
O     -2.35893     1.03582    -0.85461
H     -2.25853     1.98470    -0.67282
O     -1.46520     3.55894    -1.13885
H     -2.03812     4.08654    -1.70444
O     -0.43127     3.19934    -2.06689
H     -0.57307     2.22671    -2.09038
O      1.89696     1.24658    -1.99297
H      2.51832     0.57106    -1.66830
O      2.08710     2.29268    -1.03309
H      1.41392     2.92051    -1.33505
O      0.06225     0.65181     1.05478
H     -0.07101    -0.03761     1.72293
O      1.49588     0.65896     0.96121
H      1.64164     1.37541     0.30212
O      3.46415    -0.74932    -1.06721
H      4.32287    -0.64759    -0.64370
O      2.71951    -1.47223    -0.08972
H      2.23088    -0.74235     0.35046
O     -2.58144    -0.91287     1.90175
H     -2.17880    -1.70287     2.29111
O     -2.66372    -1.31380     0.52603
H     -2.63819    -0.44854     0.07086
