 32
-1213.3088493097903
O      3.00859    -1.56053     1.92714
H      2.31558    -2.23963     1.86574
O      2.19705    -0.45818     2.34723
H      2.19831     0.09975     1.54743
O     -0.50259    -1.71296    -1.94193
H     -1.35103    -1.26488    -1.75753
O      0.12107    -1.73505    -0.65936
H      0.29338    -0.78651    -0.48962
O     -2.34838    -0.99799     1.45750
H     -1.54472    -1.28007     1.94814
O     -2.00252     0.33944     1.09972
H     -2.48787     0.87922     1.73562
O     -0.60302     3.08341     0.56656
H     -0.28901     3.98866     0.46451
O     -1.93116     3.14582     0.05056
H     -1.84908     2.56644    -0.73179
O      1.97171     1.07534     0.10314
H      2.32830     0.82020    -0.76216
O      0.59151     0.84826    -0.20122
H      0.17424     1.66943     0.14760
O     -1.83272     1.38600    -2.01635
H     -0.98591     1.08768    -2.38678
O     -2.39499     0.17040    -1.52149
H     -2.33788     0.29038    -0.54914
O      0.56897    -2.73176     1.82699
H      0.30085    -2.44885     0.93325
O     -0.06078    -1.74021     2.64260
H      0.67345    -1.08684     2.70179
O      2.20203     0.32692    -2.53004
H      2.70723     0.38165    -3.34770
O      0.86103     0.35094    -3.02238
H      0.56063    -0.55149    -2.79019
