 20
-758.303206936515
O     -1.19233    -1.85683     1.80620
H     -1.95777    -1.28046     1.93175
O     -0.32292    -0.93093     1.13031
H      0.55845    -1.11254     1.50118
O      2.35428    -0.19954     1.34954
H      2.24245     0.49211     0.67829
O      2.45150    -1.40379     0.57863
H      2.15374    -1.13054    -0.30210
O     -1.16648    -0.81672    -1.90143
H     -0.84343    -0.99401    -1.00430
O     -1.01607     0.59385    -2.01786
H     -1.47618     0.94569    -1.23668
O      1.88375     1.50364    -0.91219
H      2.63166     1.90470    -1.36405
O      1.63082     0.37519    -1.77054
H      0.69271     0.53202    -2.02343
O     -1.72045     1.30080     0.62815
H     -1.06195     0.63418     0.90437
O     -2.90180     0.72030     1.20422
H     -3.17958     1.42559     1.79506
