 40
-1516.6444645024924
O      3.57882    -0.50973     0.10843
H      3.71112    -0.97604     0.95228
O      2.98372    -1.53517    -0.68778
H      2.29893    -1.03194    -1.17571
O     -1.34969    -0.65325     0.91255
H     -1.78440     0.10130     1.38124
O     -2.42587    -1.43593     0.39158
H     -2.59980    -0.98205    -0.45425
O     -1.10949     2.35188     1.30140
H     -0.27164     1.86905     1.46000
O     -2.06087     1.63699     2.10342
H     -2.86800     2.09069     1.81046
O      1.88803     1.53946     0.16686
H      2.63695     0.90700     0.09762
O      1.25202     1.09434     1.36569
H      1.22389     0.13344     1.24980
O     -3.19783     2.66965    -0.77265
H     -2.27922     2.73856    -0.45864
O     -3.94610     2.78865     0.44199
H     -4.30538     3.67988     0.36346
O     -0.46450     1.80667    -1.40814
H      0.37684     2.23181    -1.17994
O     -0.70570     2.19545    -2.75471
H     -1.13938     1.37644    -3.06361
O     -3.04132    -0.12132    -1.91398
H     -3.05302     0.82079    -1.68337
O     -2.03768    -0.15341    -2.92687
H     -1.40952    -0.80345    -2.54794
O      0.88417    -1.94157     1.43070
H     -0.03388    -1.61741     1.27741
O      0.99867    -2.97987     0.45069
H      1.87465    -2.76672     0.08513
O     -0.06453    -1.58149    -1.85404
H      0.07153    -2.04188    -1.00674
O      0.83880    -0.47716    -1.76256
H      0.27100     0.27339    -1.46465
O      4.09712    -3.11731     2.66542
H      4.42119    -3.02521     3.56511
O      3.41749    -1.87957     2.49614
H      2.49309    -2.16643     2.39972
