 36
-1364.973878769309
O      0.16459    -0.74598     1.54322
H     -0.54866    -1.37743     1.78166
O     -0.01326     0.30363     2.51241
H      0.92087     0.55456     2.65150
O      2.80670     2.14291     1.80010
H      3.43213     2.55657     2.40381
O      2.64561     0.85961     2.40107
H      2.94130     0.27507     1.67519
O     -2.69233    -1.23482    -0.65479
H     -2.93036    -0.46902    -0.08908
O     -1.37743    -0.83893    -1.02980
H     -1.55965    -0.27286    -1.80601
O     -1.40129     0.68633    -3.18606
H     -1.73136     0.72063    -4.08882
O     -0.03887     1.06488    -3.34076
H      0.41553     0.21029    -3.18332
O      1.48828    -1.02143    -2.58893
H      2.26527    -0.54829    -2.22779
O      1.10283    -1.70974    -1.39391
H      0.20333    -1.36033    -1.22031
O     -2.86881     1.14253     0.49143
H     -2.07593     1.61215     0.16394
O     -2.84540     1.45682     1.87943
H     -1.99840     1.07600     2.15625
O      0.79719     2.12304    -0.87593
H      0.45536     1.94683    -1.77021
O     -0.36138     1.86111    -0.08161
H     -0.08141     1.12249     0.48903
O      2.99294    -0.69565     0.18192
H      2.23804    -1.24971    -0.10271
O      3.11708     0.20551    -0.92711
H      2.52675     0.93151    -0.66903
O     -1.87976    -2.35325     2.18530
H     -2.03647    -3.04374     2.83426
O     -1.67672    -3.11155     0.98977
H     -2.11407    -2.52339     0.34538
