 36
-1364.9748072036243
O      1.42611     1.86382    -1.43883
H      1.09370     2.48984    -0.77010
O      2.69066     1.49621    -0.88645
H      2.68157     0.53575    -1.01033
O     -0.86204    -3.65225     0.67621
H     -1.42353    -4.43065     0.75157
O     -0.05382    -3.96596    -0.46055
H     -0.42963    -3.34569    -1.11729
O      2.50770     1.73737     1.75457
H      2.70068     1.66009     0.79734
O      2.38919     0.35873     2.11487
H      1.42081     0.25823     2.13874
O     -0.92030    -0.89327     2.18830
H     -1.46759    -0.69927     2.95501
O     -0.30526     0.36264     1.92074
H     -0.93413     0.79682     1.30857
O     -1.46296     2.32741    -1.92968
H     -1.80817     2.77782    -2.70616
O     -1.99555     1.01741    -2.08125
H     -1.17903     0.46944    -2.15461
O     -1.12450    -1.88815    -1.91893
H     -1.78591    -1.61463    -1.24612
O     -0.16485    -0.84081    -1.81128
H      0.41282    -1.13088    -1.06891
O     -1.04655     2.81573     0.67019
H     -1.23443     2.70979    -0.27923
O      0.30468     3.27265     0.60349
H      0.71945     2.78083     1.32781
O      1.47982    -1.65777     0.14603
H      1.53238    -2.62602     0.21112
O      2.84471    -1.25104     0.02609
H      2.91359    -0.73761     0.85662
O     -2.59947    -1.19316     0.18178
H     -1.93396    -1.38573     0.86673
O     -2.72301     0.22040     0.37877
H     -2.60336     0.53218    -0.53765
