 40
-1516.6419688575295
O      2.38378     3.15290    -1.20710
H      1.86371     2.32661    -1.23726
O      1.36157     4.14425    -1.09596
H      1.33779     4.52013    -1.98233
O      1.04555    -1.19336     0.72513
H      1.06755    -0.40050     0.13110
O      1.16729    -0.67074     2.04576
H      0.24208    -0.42212     2.24090
O      0.88097     0.81606    -1.00464
H     -0.04939     1.10194    -0.90063
O      0.89792     0.30158    -2.33626
H      0.69685    -0.64049    -2.17542
O     -2.87982     0.99133    -1.40245
H     -2.51878     1.77653    -0.96807
O     -1.88549     0.03341    -1.07692
H     -2.18849    -0.34859    -0.23007
O     -0.85433     2.82540     1.31940
H      0.06288     2.52720     1.51083
O     -0.82335     2.92228    -0.11467
H     -0.02794     3.46112    -0.29553
O      1.64968     1.99092     1.47484
H      1.99142     1.15755     1.83826
O      2.68414     2.95064     1.71482
H      2.94837     3.11989     0.80121
O     -1.48334    -0.19193     2.48466
H     -1.77883    -1.07853     2.21777
O     -2.36555     0.59291     1.66745
H     -1.92120     1.46447     1.66293
O     -2.08281    -3.53199     0.34619
H     -2.06391    -3.42126    -0.61800
O     -1.71523    -2.23252     0.77864
H     -0.75424    -2.22072     0.64405
O      2.09810    -3.95920     0.04727
H      1.94760    -3.05890     0.36724
O      0.76729    -4.32446    -0.30793
H      0.58318    -5.08582     0.25454
O      0.19319    -2.31959    -1.96031
H      0.32057    -3.11975    -1.40704
O     -1.21905    -2.35931    -2.21019
H     -1.47808    -1.45498    -1.95901
