 40
-1516.6430000796365
O      3.04901     0.96348    -1.40648
H      2.58641     0.20440    -1.82727
O      2.38326     2.08790    -1.97302
H      2.94026     2.32971    -2.71997
O     -1.64314    -0.89445     0.53624
H     -2.17903    -0.28170    -0.01245
O     -2.37846    -0.98383     1.75699
H     -2.26015    -0.08508     2.12509
O     -1.10814     2.23285     1.86970
H     -1.87361     2.29506     1.26738
O     -1.62251     1.37666     2.89576
H     -0.78363     1.03035     3.26842
O      0.89723     0.83010     0.78318
H      0.21521     1.44917     1.13424
O      2.09467     1.29644     1.41102
H      2.69719     1.12175     0.67092
O     -2.94540     2.26201    -0.10514
H     -3.77572     2.57374    -0.47424
O     -2.66216     1.13927    -0.93586
H     -1.84389     1.44744    -1.40784
O     -0.29623     1.79426    -1.89336
H      0.67515     1.92065    -1.82061
O     -0.44537     1.40542    -3.25845
H     -0.15064     0.47825    -3.18834
O      1.79268    -1.29632    -2.30880
H      1.70698    -1.65673    -1.39410
O      0.41032    -1.09779    -2.64357
H     -0.00320    -1.92621    -2.30798
O      1.16005    -1.71249     0.18402
H      0.85033    -0.78324     0.29907
O      2.24336    -1.74272     1.11620
H      1.73578    -1.71325     1.94767
O     -1.70806    -3.20662    -0.80509
H     -1.56024    -2.38129    -0.29709
O     -0.49021    -3.35005    -1.53970
H      0.05221    -3.89919    -0.96015
O      0.66659     0.10615     3.48527
H      1.37222     0.39280     2.87710
O      0.45291    -1.25630     3.08119
H     -0.31651    -1.20199     2.49508
