 32
-1213.311653538625
O      1.90865     0.77141     0.66499
H      1.94929     0.57392    -0.29330
O      1.94234     2.19905     0.72140
H      1.26656     2.35467     1.41900
O     -1.12865    -2.01464    -0.80178
H     -0.66437    -1.21297    -1.11333
O     -0.11396    -2.62004     0.00134
H     -0.05714    -2.00421     0.76750
O      0.52143     3.67161    -1.05714
H      1.20123     3.15803    -0.57818
O      0.18505     2.79228    -2.12292
H      0.61053     3.20485    -2.88142
O     -1.14100     3.34788     1.52090
H     -0.72994     3.44410     0.65238
O     -0.22539     2.48528     2.18751
H     -0.70932     1.63521     2.19618
O      0.19804     0.15792    -1.56491
H      0.12365     1.11310    -1.73706
O      1.58766    -0.03826    -1.81463
H      1.63857    -1.00924    -1.94729
O      2.11438    -2.60232    -2.21476
H      2.82745    -3.18839    -1.94498
O      0.98933    -3.47560    -2.29054
H      0.56487    -3.29265    -1.42861
O     -1.09048    -0.05859     2.03445
H     -1.74083    -0.79199     2.06774
O      0.14010    -0.78577     1.93296
H      0.74100    -0.11539     1.54872
O     -3.30652    -1.50914     0.69430
H     -2.56878    -1.79976     0.12627
O     -2.86376    -2.04527     1.94191
H     -3.69851    -2.23997     2.37604
