 32
-1213.3111142426476
O     -1.04685    -2.23320     1.29613
H     -1.95633    -1.98853     1.03806
O     -0.74947    -1.11621     2.14032
H      0.23137    -1.13518     2.18638
O      0.20299    -2.10200    -1.05691
H     -0.18217    -2.33600    -0.19062
O     -0.55154    -0.90907    -1.31570
H      0.08627    -0.18352    -1.15027
O     -0.13048     1.83274     1.65340
H      0.00585     2.54961     1.01786
O     -1.27746     1.22342     1.03517
H     -1.23992     0.32069     1.42815
O     -0.61201     3.50436    -0.59186
H     -0.72205     4.35952    -1.01615
O     -1.73254     2.77273    -1.11660
H     -1.85292     2.16337    -0.36725
O      1.40777     0.82977    -2.48353
H      2.15185     0.29679    -2.15795
O      0.90453     1.27672    -1.21629
H      0.26550     1.95552    -1.47789
O      1.91278    -0.85201     2.04095
H      2.28958    -1.42373     1.34153
O      2.16783     0.42500     1.43001
H      1.31851     0.88680     1.56248
O      3.17601    -0.44334    -0.88566
H      3.02960     0.12898    -0.11285
O      2.73180    -1.68558    -0.34039
H      1.87202    -1.82406    -0.78937
O     -3.21253    -1.07847     0.34640
H     -4.10992    -0.73739     0.28263
O     -3.06239    -1.78017    -0.89135
H     -2.20499    -1.40901    -1.17929
