 36
-1364.9765209704806
O      1.99689     1.49502     0.47583
H      2.23823     2.43696     0.51830
O      3.21477     0.81834     0.79447
H      2.89758     0.33513     1.57789
O      1.48478    -1.90771     2.10128
H      1.93038    -1.89805     1.22711
O      1.78919    -0.59006     2.57489
H      0.89988    -0.19902     2.53544
O     -2.41931    -2.19308    -0.03075
H     -2.07795    -2.15406     0.88385
O     -1.24043    -2.63884    -0.70200
H     -1.32910    -2.15880    -1.54755
O     -1.14557    -1.75791     2.27620
H     -0.24026    -2.12326     2.21676
O     -0.82141    -0.36398     2.18596
H     -1.59157    -0.01642     1.69536
O     -2.15238    -0.29444    -3.28281
H     -2.09356    -0.49619    -4.21997
O     -1.01865    -0.99945    -2.80008
H     -0.50806    -0.27260    -2.37717
O     -2.98488     0.65326     0.97082
H     -3.90137     0.51165     1.22632
O     -3.00141     0.38728    -0.42924
H     -2.79718    -0.57554    -0.44269
O      1.40218     4.16571     0.48995
H      1.85950     5.01010     0.45659
O      1.32221     3.84969    -0.90102
H      0.48114     3.36680    -0.91260
O      2.57385    -1.76422    -0.30454
H      2.91632    -0.85767    -0.35775
O      1.56215    -1.76502    -1.31261
H      0.77625    -2.01664    -0.80221
O      0.17017     0.88706    -1.37484
H      0.86710     1.03621    -0.69690
O     -0.71821     1.97919    -1.10245
H     -1.56810     1.51317    -1.09263
