 40
-1516.6389529159771
O      2.04051     3.88964    -1.50240
H      2.43356     3.11884    -1.06822
O      0.65576     3.61613    -1.26564
H      0.28729     3.57041    -2.15656
O      1.53354    -0.62681    -0.48296
H      2.42132    -0.26649    -0.31975
O      1.33356    -1.42725     0.69120
H      1.20559    -2.29753     0.28148
O     -0.87164    -1.53635    -1.64454
H     -0.24566    -0.81019    -1.46984
O     -1.95701    -0.88048    -2.30313
H     -2.59723    -0.85014    -1.55970
O     -2.69563     0.25539     0.79605
H     -2.05121     0.63284     0.16076
O     -3.27154    -0.81988     0.04280
H     -2.88100    -1.59694     0.48569
O     -1.25814     1.71411    -2.12797
H     -1.60418     0.88909    -2.51156
O     -0.84974     1.17544    -0.86011
H     -0.13882     1.78666    -0.58945
O      3.45601     1.45573    -0.53492
H      4.40910     1.46797    -0.65397
O      3.35903     1.31715     0.88680
H      2.49366     1.75496     1.03821
O      0.81425     3.70047     1.65883
H      0.57408     4.11414     0.81887
O      0.92189     2.35518     1.18975
H      0.40361     1.82825     1.82900
O     -1.20343    -0.58843     2.84855
H     -1.85342    -0.23264     2.20861
O     -0.02767     0.11960     2.46065
H      0.43615    -0.52702     1.89312
O      0.50713    -3.95866    -0.54318
H      0.10876    -4.78442    -0.24954
O      0.23089    -3.95861    -1.95367
H     -0.21925    -3.09588    -2.02126
O     -1.83481    -2.94250     0.87658
H     -1.20456    -2.81447     0.14758
O     -0.95072    -3.14762     1.98659
H     -1.02823    -2.28347     2.43786
