 32
-1213.305538565353
O      0.54068    -3.16072     0.31348
H      1.47810    -2.93624     0.22262
O      0.38708    -3.25684     1.72601
H     -0.11403    -2.45277     1.92986
O      1.28166    -1.55352    -2.05909
H      1.38214    -2.41542    -2.47961
O      2.41799    -1.49937    -1.19237
H      2.08901    -0.91952    -0.46418
O     -1.62441    -1.93568    -0.67655
H     -0.86247    -2.43158    -0.31111
O     -1.00437    -0.70626    -1.05339
H     -0.15758    -0.98795    -1.45984
O      1.71172     1.53459    -2.70438
H      1.88000     0.59446    -2.83779
O      0.95482     1.46878    -1.50150
H      0.08963     1.86367    -1.73723
O      1.80026     1.11969     0.98182
H      1.52119     1.36757     0.07582
O      1.53800    -0.28354     0.96076
H      0.58841    -0.32066     1.21685
O     -1.58797     2.29194    -1.64372
H     -1.98859     3.15955    -1.53663
O     -1.96568     1.64732    -0.42652
H     -1.65954     0.73193    -0.63017
O     -0.35437     2.14566     2.41793
H      0.59701     2.14489     2.22891
O     -0.84041     3.13732     1.50258
H     -1.30987     2.56841     0.86507
O     -0.96231    -0.34774     1.74459
H     -0.97726     0.56059     2.12090
O     -2.35540    -0.63343     1.57287
H     -2.30881    -1.11613     0.73118
