 36
-1364.9774700579023
O      2.19985     1.20931     1.38123
H      2.57689     0.88849     0.52994
O      2.86362     0.41217     2.34801
H      2.13723    -0.15789     2.62570
O     -2.34225     1.35786    -0.84698
H     -2.84138     0.58551    -0.51599
O     -1.60720     0.74098    -1.90487
H     -0.83720     1.33847    -1.99536
O     -1.29471    -1.20536     2.04434
H     -0.98832    -2.12953     1.90936
O     -0.09227    -0.48573     1.75839
H     -0.38909     0.45551     1.78971
O      3.40201     0.33942    -0.80669
H      3.99259    -0.41944    -0.87325
O      2.70304     0.33058    -2.04830
H      1.84106    -0.01582    -1.73443
O     -3.36967    -2.11110    -0.32016
H     -4.31821    -2.26190    -0.28635
O     -3.29123    -0.84673     0.32246
H     -2.58783    -0.99849     0.98941
O      0.19551     2.85065     0.86321
H      0.96748     2.38644     1.23939
O     -0.87020     2.00380     1.30373
H     -1.41275     1.91290     0.49036
O     -0.37533    -1.50363    -1.23368
H     -1.06499    -0.88676    -1.54736
O      0.59666    -0.55257    -0.79687
H      0.40740    -0.52461     0.16788
O      0.55737     2.30993    -1.73570
H      0.48284     2.62726    -0.81250
O      1.76502     2.94807    -2.15132
H      2.28520     2.16603    -2.37479
O     -0.64093    -3.71009     1.39877
H     -1.22665    -4.43702     1.16404
O      0.27999    -3.68421     0.30714
H     -0.03326    -2.91937    -0.21468
