 12
-454.97304129750967
O      0.16596    -0.78799     1.54955
H     -0.61905    -0.61871     1.00694
O      0.38132     0.49759     2.13878
H      0.15784     0.31999     3.05650
O      1.83985    -0.58955    -0.75442
H      1.38172    -0.77848     0.07934
O      1.11110     0.54483    -1.22897
H      1.42456     1.26716    -0.67342
O     -2.14912     0.72389    -0.86969
H     -2.80008     0.50402    -1.54169
O     -1.32914    -0.44843    -0.88788
H     -0.48169    -0.07290    -1.20779
