 36
-1364.9788403658008
O      3.15435     1.06222     0.79581
H      3.28475     0.73265    -0.11368
O      3.20344    -0.13348     1.56712
H      2.26710    -0.27817     1.76929
O     -2.48262     0.08142     1.00813
H     -2.59648    -0.86936     0.86290
O     -2.55284     0.56631    -0.33489
H     -2.34258     1.51319    -0.20764
O     -0.17613    -1.85808     1.77730
H      0.12140    -2.41420     1.03588
O      0.21400    -0.59055     1.24015
H     -0.43224     0.01664     1.64404
O      2.89707    -1.31053    -1.74661
H      3.20366    -1.49640    -2.63968
O      2.82940     0.11488    -1.74142
H      1.86147     0.27726    -1.67910
O     -3.20580    -2.14614    -1.56194
H     -3.40160    -1.21916    -1.38214
O     -2.46322    -2.48276    -0.38199
H     -1.60103    -2.76182    -0.75688
O      0.89429     2.38633     1.26355
H      1.78141     1.96044     1.15973
O      0.51603     1.90341     2.55809
H     -0.11216     2.58187     2.82196
O     -0.64018    -0.13204    -1.99864
H     -1.48133     0.07646    -1.54551
O      0.25630     0.55967    -1.11933
H      0.16988     0.04601    -0.27834
O     -1.42476     2.97442     0.02816
H     -0.51629     2.78455     0.34580
O     -1.88102     3.88915     1.02189
H     -1.95447     4.69595     0.50456
O      0.93315    -2.65968    -0.51779
H      1.67210    -2.16127    -0.90961
O     -0.02664    -2.74139    -1.57557
H     -0.13919    -1.81059    -1.85946
