 40
-1516.6466673657822
O      1.99195     2.50577    -0.54511
H      1.84859     2.00495    -1.36836
O      2.49914     1.49974     0.32990
H      1.75713     1.38476     0.95336
O     -0.69142    -0.34611    -0.37016
H     -0.11284    -0.39421    -1.17123
O     -2.02623    -0.43803    -0.88134
H     -2.47683    -0.54226    -0.02636
O     -1.71878     2.60520     0.76534
H     -1.60879     2.68161    -0.19925
O     -3.10871     2.28658     0.85878
H     -3.09911     1.66347     1.60308
O      0.31825     1.30720     1.91861
H     -0.48558     1.71308     1.52507
O     -0.20331     0.42699     2.91604
H      0.33080    -0.38053     2.74271
O     -1.61432     2.78573    -1.92171
H     -2.31827     3.19747    -2.43185
O     -1.45525     1.53506    -2.57744
H     -1.84967     0.90104    -1.93911
O      1.19849     1.11374    -2.77195
H      0.26089     1.37786    -2.81662
O      1.02660    -0.27367    -2.44855
H      1.92113    -0.49462    -2.10744
O      3.25395    -0.65436    -0.98255
H      3.15172     0.16958    -0.44863
O      2.83364    -1.66104    -0.05574
H      2.40700    -2.30504    -0.65613
O      0.05675    -2.27585     1.30247
H     -0.26911    -1.51601     0.76903
O      1.13439    -1.70090     2.03835
H      1.83683    -1.63577     1.36182
O      1.16019    -4.09801    -0.34386
H      0.66772    -3.52944     0.28058
O      1.23320    -3.19927    -1.45530
H      1.21058    -3.80160    -2.20608
O     -2.81947     0.12334     2.53850
H     -1.86138     0.18985     2.76341
O     -2.81108    -0.97662     1.63550
H     -3.19796    -1.68706     2.15849
