 28
-1061.6363978881443
O     -2.62767    -1.75996    -1.11955
H     -1.67663    -1.53429    -1.19029
O     -3.19524    -0.48049    -0.82925
H     -3.69122    -0.29829    -1.63476
O      3.51142    -0.46483     1.08696
H      3.86993    -0.75493     1.93086
O      2.19155    -0.06310     1.46356
H      1.64089    -0.74588     1.01558
O     -1.96779    -1.35340     1.67072
H     -2.63268    -1.52492     0.98427
O     -2.17305    -2.45449     2.56000
H      1.60564     1.91023     1.77994
O      0.40169    -1.71048     0.37801
H     -0.42263    -1.57371     0.88345
O      0.00658    -1.31716    -0.94249
H      0.60799    -0.55221    -1.08071
O     -1.13245     1.17306    -2.38388
H     -0.16864     1.14465    -2.43741
O     -1.27505     1.42738    -0.97745
H     -1.93816     0.75885    -0.74478
O      0.98504     2.75926     0.24232
H      0.03195     2.60909     0.13552
O      1.15029     2.75511     1.65821
H     -2.57866    -2.00969     3.31010
O      1.60958     0.73019    -1.34489
H      1.56813     1.52255    -0.76110
O      2.94725     0.74033    -1.81917
H      3.39324     0.27296    -1.10197
