 36
-1364.9749692680375
O      1.80707     1.89063     1.83159
H      1.56954     2.05927     0.90650
O      0.60173     2.25903     2.52378
H      0.50813     1.49227     3.11307
O     -3.04310    -0.38829    -0.25552
H     -3.95472    -0.29040     0.03378
O     -2.79329     0.82929    -0.95033
H     -2.37863     1.37815    -0.23897
O      0.79225    -0.12131     3.85314
H      1.20879    -0.20888     4.71682
O      1.70278    -0.82851     3.00821
H      2.10953    -0.10030     2.50663
O      0.11613     1.67392    -1.52607
H     -0.23017     0.98888    -2.15896
O      1.01570     0.87975    -0.75479
H      0.37978     0.41117    -0.17260
O     -0.15578    -1.85940     0.97892
H      0.44080    -1.67690     1.71833
O     -0.62173    -0.53396     0.71790
H     -1.53373    -0.66681     0.35631
O     -1.53620     2.21975     0.87752
H     -0.79520     2.28233     1.51993
O     -1.29862     3.34282     0.03407
H     -0.76049     2.91880    -0.65746
O     -1.92011    -0.37157    -3.49019
H     -2.36450     0.09717    -2.77361
O     -0.57986    -0.36275    -2.99329
H     -0.48763    -1.24233    -2.55794
O      0.98560    -3.31596    -1.95741
H      1.62171    -2.58178    -1.97025
O     -0.19798    -2.60556    -1.59726
H     -0.08982    -2.47549    -0.63642
O      2.54611    -1.26414    -1.20536
H      2.02760    -0.43632    -1.16205
O      2.73081    -1.53814     0.18743
H      2.67122    -2.49989     0.20107
