 24
-909.9770816218005
O     -1.52701    -1.02423    -0.80116
H     -2.03050    -0.18335    -0.83290
O     -1.02991    -1.05211     0.54358
H     -0.09736    -1.31150     0.40845
O      0.52735    -1.18912    -2.49414
H     -0.30367    -1.21468    -1.97422
O      0.81068    -2.57742    -2.63137
H      0.86147    -2.65516    -3.58794
O      1.97007    -0.04094    -0.55015
H      1.65540    -0.43939    -1.38430
O      1.68406    -1.12705     0.35099
H      1.95497    -0.70867     1.19127
O     -2.56762     2.25449    -0.38166
H     -1.59618     2.19249    -0.35922
O     -2.85392     1.21386    -1.32504
H     -3.79459     1.34404    -1.47376
O      1.95058     0.53903     2.45605
H      1.16948     1.07582     2.21006
O      1.43445    -0.23049     3.54167
H      2.01073     0.05487     4.25695
O      0.08677     1.83559    -0.03217
H      0.83254     1.22764    -0.21293
O     -0.31529     1.43185     1.28092
H     -0.74173     0.57018     1.09068
