 20
-758.3078646897943
O      0.72753    -1.91294     2.03402
H      0.77040    -0.95650     2.18914
O     -0.23227    -1.93843     0.97181
H     -0.62775    -2.80851     1.08027
O      2.22402    -0.30197    -0.61604
H      1.81250     0.41293    -0.10006
O      1.08535    -0.95373    -1.17977
H      0.65599    -1.35675    -0.40455
O      0.58960     0.79933     2.32983
H      1.01277     1.42658     2.92275
O      0.87853     1.39089     1.06472
H     -0.02437     1.40588     0.66739
O     -1.49579     1.21723    -0.07370
H     -1.51804     0.93038    -1.01091
O     -2.34001     0.27176     0.58631
H     -1.68763    -0.30268     1.00350
O      0.01644     1.00073    -2.56276
H      0.51389     0.27184    -2.12742
O     -1.28554     0.40071    -2.59641
H     -1.61411     0.70760    -3.44572
