 36
-1364.978502051745
O      3.46409     1.09445    -0.55123
H      3.57407     0.17470    -0.25755
O      2.18470     0.97488    -1.17738
H      1.61706     1.55858    -0.62470
O     -3.26700    -0.49550     0.43503
H     -3.57857     0.36496     0.78448
O     -3.68267    -0.42578    -0.93122
H     -2.84189    -0.59185    -1.39265
O      1.91734    -0.86757    -3.04812
H      2.16898    -0.20726    -2.36605
O      1.69830    -2.00581    -2.21329
H      1.72701    -2.72699    -2.85118
O     -1.25277    -0.87556    -2.08900
H     -0.80730    -1.37733    -1.37257
O     -0.52438     0.35268    -2.06948
H      0.07763     0.25072    -2.82239
O      0.45700     2.34293     0.35706
H      0.42471     1.93350     1.24236
O     -0.88658     2.14932    -0.09332
H     -0.79362     1.45084    -0.77474
O     -2.44054     1.83706     2.01831
H     -1.92393     2.07151     1.22052
O     -3.75700     1.92067     1.47787
H     -4.25671     2.25423     2.22821
O     -0.84138    -1.24077     1.15587
H     -1.74443    -0.99983     0.82801
O     -0.34539    -2.07626     0.10587
H      0.60299    -2.10648     0.34930
O      1.67663     0.23519     2.75327
H      1.69893     0.10212     3.70431
O      0.35321     0.70133     2.54272
H     -0.06991    -0.07946     2.11842
O      3.14727    -1.55053    -0.00995
H      2.65730    -1.80394    -0.81497
O      2.13168    -1.73437     0.97043
H      2.15928    -0.92017     1.50529
