 32
-1213.3106693556217
O      1.12361    -2.67485    -0.97651
H      0.18191    -2.83282    -1.19852
O      1.70301    -2.55162    -2.27386
H      2.30458    -3.30179    -2.29082
O     -0.15055     2.46672     2.90282
H     -0.40774     2.75635     2.00746
O     -0.72019     1.15478     2.94876
H      0.03850     0.56598     2.79803
O     -1.94501    -2.76323    -2.90524
H     -1.80491    -1.81922    -3.07272
O     -1.49017    -2.85115    -1.55439
H     -2.29530    -3.04769    -1.06258
O     -0.55834     3.01094     0.28797
H     -1.27707     2.38645     0.11048
O      0.54056     2.35569    -0.35826
H      1.24160     2.41376     0.33011
O      2.90386     1.16659     1.86428
H      2.35096     0.58938     1.30547
O      2.34464     2.45967     1.60500
H      1.84577     2.62609     2.41863
O     -0.64049     0.19951    -1.83371
H      0.00335     0.89299    -1.59859
O     -0.22174    -0.26504    -3.10986
H      0.40056    -0.96600    -2.86477
O      0.46952    -1.15482     1.60433
H     -0.43580    -1.10992     1.23299
O      1.18931    -0.49151     0.55409
H      1.34334    -1.24221    -0.05392
O     -2.24482     0.71289     0.81656
H     -1.77115     0.79405     1.67045
O     -1.83233    -0.58636     0.39613
H     -1.46930    -0.37746    -0.48721
