 32
-1213.3065786072923
O      2.85593     0.23774     1.27606
H      2.68803     0.95025     0.63993
O      1.52299    -0.27899     1.35508
H      1.48176    -0.67627     2.24003
O      1.03841    -1.86418    -0.78719
H      1.36006    -1.26147    -0.09125
O     -0.28237    -2.18840    -0.32128
H     -0.82489    -1.53145    -0.79280
O     -1.45908    -0.14339    -1.72721
H     -0.89140    -0.34850    -2.49941
O     -0.89155     1.10085    -1.29215
H     -1.39261     1.26511    -0.47363
O     -0.36314    -0.96977     3.27785
H     -0.49868    -0.00536     3.29099
O     -1.26040    -1.31402     2.21534
H     -0.71763    -1.89018     1.65323
O      0.46628    -1.15752    -3.26803
H      0.85247    -1.61412    -2.49187
O      1.60744    -0.50310    -3.82659
H      1.81519     0.12530    -3.12026
O      1.70456     1.17918    -1.67032
H      0.73426     1.21080    -1.50965
O      2.15624     2.04388    -0.63889
H      2.71131     2.65036    -1.13752
O     -0.02224     1.93782     1.59897
H      0.49959     1.12033     1.50028
O     -0.78639     1.66558     2.78214
H     -1.68001     1.63840     2.41289
O     -2.66178     0.48284     0.80633
H     -2.24272    -0.26613     1.27323
O     -3.74781    -0.15518     0.13643
H     -3.43627    -0.12029    -0.77677
