 24
-909.9786169340558
O     -1.76098    -0.57378     1.07414
H     -1.02928    -1.21787     1.22512
O     -1.92094    -0.69031    -0.34973
H     -2.44061     0.10423    -0.54727
O      3.17610    -0.71747     0.23967
H      3.50474    -1.02008     1.09069
O      2.61723    -1.93465    -0.27519
H      2.15275    -1.57920    -1.04424
O      0.50309    -0.36845    -1.32713
H     -0.34655    -0.70971    -0.97107
O      0.17180    -0.04622    -2.66959
H     -0.46784     0.66341    -2.52851
O     -2.49495     2.08648    -0.85491
H     -1.78567     2.28695    -0.22177
O     -1.79630     2.20843    -2.08879
H     -2.14906     3.02492    -2.45601
O      0.45403    -1.94970     1.39551
H      1.27661    -2.07646     0.88160
O      0.88356    -1.08680     2.45083
H      0.94753    -0.22724     1.99018
O      0.84205     1.24655     1.08097
H      0.84671     0.92922     0.16309
O     -0.48229     1.76220     1.22530
H     -0.98133     0.94607     1.41780
