 32
-1213.3037604504727
O     -0.57810     1.83284    -1.30227
H     -1.45909     1.45036    -1.19097
O      0.22891     0.73064    -0.88068
H      0.50396     0.31673    -1.73129
O      2.44196    -2.20009    -1.25293
H      2.77242    -3.09331    -1.13155
O      1.74837    -2.00367    -0.02017
H      2.17174    -1.18315     0.33942
O     -0.93691    -2.10818    -0.05419
H      0.04739    -2.10734    -0.04567
O     -1.25789    -2.24177     1.33110
H     -1.26688    -1.30643     1.60085
O     -1.30971     0.43495     1.67321
H     -2.08916     0.62292     1.11090
O     -1.32712     1.45583     2.66440
H     -0.57569     1.99096     2.37051
O      1.66440     0.02575     2.17624
H      0.77784     0.02273     1.78144
O      2.48106     0.32233     1.04451
H      2.29124     1.26728     0.88478
O     -0.45833    -1.61552    -3.07955
H     -1.11015    -1.00340    -2.71180
O      0.74312    -0.86389    -2.95528
H      1.32899    -1.49113    -2.50039
O     -2.48921    -0.29629    -1.12155
H     -1.92999    -0.97567    -0.66328
O     -3.32034     0.16278    -0.05733
H     -3.95917    -0.54930     0.05355
O      0.45818     3.07774     0.88558
H      0.11245     2.72922     0.04105
O      1.87175     2.98535     0.67367
H      2.18138     3.78936     1.10328
