 40
-1516.640154728335
O      2.80721    -0.54576     0.33511
H      2.40047    -1.40651     0.55582
O      2.69766     0.17417     1.56310
H      2.98590     1.06708     1.28173
O     -1.44946     1.87011    -1.43063
H     -2.12022     1.33868    -1.89136
O     -0.52647     2.19722    -2.47502
H      0.21129     1.60703    -2.22591
O     -1.92709    -0.27826     0.62228
H     -1.16219     0.34084     0.75148
O     -1.97770    -0.99896     1.85301
H     -1.53642    -1.82321     1.59043
O      0.93605    -1.05505     3.12406
H      1.57341    -0.51930     2.60900
O     -0.03949    -0.08121     3.48768
H     -0.81431    -0.40858     2.99442
O      0.11285     2.66923     0.53912
H     -0.49929     2.48381    -0.20613
O      0.13695     1.33921     1.08262
H      0.30584     1.49019     2.02817
O      0.64112    -0.94683    -1.96991
H     -0.20920    -0.67927    -2.36301
O      1.20551     0.32819    -1.64600
H      1.77830     0.10952    -0.87951
O     -3.39747    -0.27873    -3.05092
H     -3.41341    -1.15529    -2.63975
O     -1.99560    -0.16728    -3.31262
H     -1.97938     0.27205    -4.16981
O      0.10187    -2.88984     1.38341
H      0.44414    -2.37952     2.15076
O      1.14630    -2.65774     0.43919
H      0.66033    -2.29597    -0.31799
O     -2.99973    -2.18312    -0.89200
H     -2.71473    -1.40920    -0.35830
O     -1.72941    -2.76337    -1.20671
H     -1.77014    -3.61501    -0.75699
O      2.72938     3.70524     1.17375
H      1.85253     3.49566     0.81953
O      3.46678     2.57988     0.69503
H      4.07372     2.95788     0.05062
