 36
-1364.9859886558902
O      2.23805     3.65532     0.61129
H      2.97246     4.06398     1.07813
O      2.86212     2.58194    -0.08988
H      2.59229     1.81727     0.46412
O     -1.03058    -3.41824    -0.84625
H     -0.22507    -3.33802    -0.29762
O     -2.01949    -3.09810     0.13397
H     -2.18299    -2.14968    -0.04714
O     -1.42015     0.62125     2.20778
H     -1.03352     1.49629     1.97621
O     -0.29403     0.01729     2.85225
H     -0.46043    -0.93989     2.72047
O      1.79262     0.53382     1.29512
H      1.07875     0.44295     1.96805
O      1.22914    -0.28741     0.25577
H      0.97169     0.38246    -0.42161
O     -0.20256     2.78047     1.27984
H      0.68727     3.13591     1.08045
O     -0.95157     3.21050     0.15247
H     -1.22023     2.36250    -0.22727
O     -2.34749    -0.49029    -0.02054
H     -2.04641    -0.12393     0.84172
O     -1.78755     0.45017    -0.93706
H     -1.60998    -0.11405    -1.70891
O      1.75076     0.58990    -2.44302
H      1.14283    -0.12016    -2.69129
O      0.85102     1.44186    -1.73470
H      1.40773     2.22047    -1.56615
O      0.18970    -1.55316    -3.27573
H      0.02630    -1.66605    -4.21645
O     -1.13592    -1.51173    -2.76347
H     -1.14820    -2.32187    -2.20926
O      0.57553    -2.72268     1.11588
H      0.78690    -1.79000     0.88894
O     -0.39293    -2.58247     2.16162
H     -1.17827    -2.89959     1.67705
