 36
-1364.9773777069113
O      1.45364     2.13705     2.90288
H      0.49680     2.01079     2.86339
O      1.84190     1.72149     1.59674
H      1.66771     0.75372     1.60295
O      0.89797    -0.78822     1.79287
H      1.33909    -1.58634     1.46286
O     -0.40635    -0.95694     1.22371
H     -0.61850    -0.05941     0.91898
O      0.56512     2.66987    -1.30081
H     -0.19873     2.10303    -1.52346
O      0.23694     3.09095     0.02824
H      0.96788     2.68243     0.55800
O      1.64276    -3.08154     0.01627
H      0.93184    -3.22627    -0.64952
O      2.64601    -2.46389    -0.79013
H      3.36089    -3.10680    -0.76107
O     -1.65018     2.00771     2.39891
H     -2.29173     2.70880     2.54338
O     -1.81935     1.73041     1.01063
H     -1.13791     2.31873     0.59437
O     -3.40344    -0.73056     0.28474
H     -3.04165     0.15576     0.41538
O     -3.19595    -0.91657    -1.11529
H     -2.79661    -1.80740    -1.11027
O      2.72484     1.04368    -1.15670
H      2.07202     1.74445    -1.32952
O      1.83816     0.06653    -0.61092
H      2.33891    -0.76821    -0.70975
O     -1.25095     0.76853    -1.75624
H     -2.06241     0.22087    -1.62552
O     -0.30419    -0.25862    -2.08917
H      0.43744    -0.06265    -1.46328
O     -0.46931    -2.89384    -1.60479
H     -0.50362    -1.95104    -1.88399
O     -1.54209    -3.00818    -0.67669
H     -1.18586    -2.56647     0.11374
