 28
-1061.647398386857
O      1.65695    -1.44162     0.96990
H      0.95173    -2.12269     0.94479
O      0.95668    -0.41637     1.69735
H      1.35433     0.40249     1.32481
O     -1.13775    -2.12385    -0.36710
H     -0.41911    -2.12738    -1.02506
O     -0.55520    -2.87501     0.69971
H     -1.13690    -2.63694     1.44997
O     -1.76167    -1.87358     2.85317
H     -2.31978    -2.17384     3.57694
O     -0.46510    -1.92661     3.45565
H      1.61231     1.35273    -0.56760
O     -1.05427     3.39165    -2.19783
H     -1.15857     3.84703    -3.03715
O      0.37107     3.34164    -2.07666
H      0.44128     3.32883    -1.10785
O     -1.08389     0.76252    -1.74023
H     -1.13102     1.73240    -1.84588
O     -1.32766     0.59435    -0.33190
H     -1.27187    -0.37711    -0.24778
O      0.44159     2.41048     0.50473
H     -0.21807     1.70081     0.34502
O      1.68421     1.73714     0.32298
H     -0.01191    -1.25338     2.92156
O      1.75705    -0.49338    -1.53610
H      1.78894    -0.92678    -0.66180
O      0.67418    -1.19084    -2.16374
H      0.05419    -0.44983    -2.28318
