 24
-909.9798857403877
O     -2.14059    -0.18131     0.77495
H     -2.09800    -0.79964     0.01926
O     -2.21136     1.07883     0.09082
H     -1.77548     0.88952    -0.76439
O      0.35706    -0.46929     1.75894
H     -0.57215    -0.27820     1.50966
O      1.06059     0.57527     1.07566
H      0.76687     1.38643     1.53022
O      1.63400     0.21646    -1.46813
H      1.47675     0.37370    -0.51070
O      2.74706    -0.66301    -1.39703
H      3.15312    -0.51733    -2.25507
O     -1.45701    -1.19061    -1.55172
H     -0.61587    -1.66465    -1.34555
O     -1.03796     0.07519    -2.08019
H     -0.07353     0.07216    -1.95408
O      0.78606    -2.82457     0.47698
H      0.67109    -1.98289     0.96132
O      0.78227    -2.40513    -0.88702
H      1.65510    -1.98220    -0.98812
O     -1.01171     2.33734     2.12481
H     -1.50036     1.99434     1.34907
O      0.02143     3.07310     1.46030
H      0.18706     3.76658     2.10459
