 32
-1213.3116512601684
O      3.11044     0.44994    -0.75019
H      2.85216    -0.10765     0.00396
O      3.01674     1.76074    -0.18954
H      2.26356     2.09770    -0.71347
O     -1.26548    -2.41983    -0.66791
H     -1.45205    -2.02746     0.21587
O      0.04003    -1.92235    -0.95245
H     -0.13293    -1.01849    -1.28745
O     -2.80852    -0.83884    -2.28968
H     -2.35467    -1.56531    -1.82234
O     -1.84162     0.20133    -2.09349
H     -1.51183     0.37896    -2.98496
O      0.85546     0.96776     1.41668
H      1.64436     1.52492     1.37978
O      0.02724     1.61625     2.38803
H     -0.41358     0.81657     2.72950
O      0.88964     0.59614    -2.14847
H      1.80466     0.36139    -1.89804
O      0.81605     1.92997    -1.63054
H      0.04136     1.87887    -1.03629
O      1.23753    -2.04999     1.37041
H      0.91381    -2.14992     0.44384
O      2.46867    -1.36242     1.17305
H      3.10596    -2.01148     1.48732
O     -0.90473    -0.89921     2.57299
H     -0.13971    -1.35696     2.18473
O     -1.90077    -1.11165     1.57423
H     -2.08624    -0.20612     1.25203
O     -2.43217     1.20611     0.27136
H     -2.52855     0.88974    -0.64558
O     -1.27685     2.03938     0.09886
H     -0.93658     2.09282     1.01137
