 16
-606.6386282071604
O     -2.52381     0.15948     0.42246
H     -2.63089    -0.17745     1.31858
O     -2.06430     1.49541     0.64126
H     -1.17195     1.44771     0.26802
O      2.54520    -0.93088     1.75657
H      2.79300    -0.35786     2.48901
O      1.37157    -0.27115     1.26350
H      1.69667     0.14446     0.44728
O      1.17103     0.72591    -1.43969
H      0.47903     0.03387    -1.56008
O      0.36933     1.81799    -0.98137
H      0.14112     2.25854    -1.80519
O     -0.87098    -0.97072    -1.33956
H     -1.58845    -0.61467    -0.77774
O     -0.35590    -2.01565    -0.52256
H      0.12560    -1.52305     0.15711
