 36
-1364.9771358597682
O      3.90359     0.74465    -1.60810
H      4.40994     1.55936    -1.56916
O      2.58115     1.27443    -1.53964
H      2.12271     0.76452    -2.24627
O     -2.45709    -1.89422     0.90204
H     -1.57267    -2.29252     0.85568
O     -2.84690    -2.11692     2.25786
H     -2.49305    -1.33080     2.69371
O      2.34378     0.70621     1.06439
H      2.52118     0.76022     0.09887
O      1.72199    -0.57671     1.18391
H      0.92907    -0.40755     1.73497
O     -0.26703     0.28005    -3.01464
H     -0.23117     0.79852    -2.18956
O      1.03881    -0.28790    -3.08045
H      0.98789    -1.01047    -2.41354
O     -2.66669    -0.86829    -1.55655
H     -2.83110    -1.45259    -0.79515
O     -1.87624    -1.71748    -2.39302
H     -1.36152    -1.03810    -2.87893
O     -1.55321     1.02244     0.07574
H     -2.01425     0.50171    -0.61254
O     -0.41995     1.50976    -0.64771
H     -0.01381     2.08501     0.02447
O      0.37692     2.80919     2.91945
H      0.04972     3.71030     2.95543
O      0.71720     2.72031     1.54177
H      1.42166     2.03472     1.56737
O     -0.68602    -0.16765     2.30901
H     -1.11219     0.23665     1.52326
O     -1.23636     0.61866     3.35971
H     -0.67829     1.40864     3.30257
O     -0.06755    -2.54811    -0.55925
H     -0.65533    -2.39982    -1.32453
O      1.14367    -1.95022    -1.03155
H      1.44110    -1.45078    -0.24092
