 32
-1213.3137261256466
O      2.17394    -1.87186    -1.91351
H      1.80109    -2.16603    -1.05406
O      3.52141    -1.55725    -1.54726
H      4.00266    -1.88982    -2.30985
O      1.07470     0.91430     1.52262
H      1.50502     0.63598     0.68934
O      0.06769    -0.09144     1.66127
H     -0.74527     0.44507     1.76523
O     -0.72488     1.01215    -1.23187
H     -1.45962     0.81874    -0.61332
O     -0.43969    -0.30349    -1.72767
H      0.50589    -0.21719    -1.92025
O      2.25983     1.94123    -1.43843
H      1.67335     2.43984    -0.84954
O      2.14350     0.64951    -0.84595
H      2.85046     0.11201    -1.25247
O      0.38326     3.31945     0.60477
H      0.47219     2.46126     1.07235
O     -1.02185     3.42566     0.39457
H     -1.10978     3.08584    -0.50692
O      0.77266    -2.25310     0.28843
H      0.42662    -1.48781     0.80121
O     -0.32761    -2.64379    -0.52635
H     -0.48465    -1.82239    -1.03698
O     -2.38460    -1.73037     1.69677
H     -2.63699    -2.11146     2.54435
O     -2.73835    -2.75408     0.76239
H     -1.85997    -2.93697     0.38155
O     -2.14647     1.38891     1.72052
H     -1.88709     2.24113     1.30856
O     -2.60826     0.65699     0.58247
H     -2.67254    -0.25309     0.95014
