 36
-1364.9749917953582
O      1.09050    -0.07713     0.45332
H      0.40641     0.59637     0.21339
O      2.00063     0.66900     1.25854
H      1.55218     0.58643     2.12215
O     -1.73987    -1.33594    -1.78760
H     -0.87834    -1.37272    -2.22874
O     -1.41929    -0.47276    -0.70221
H     -1.63608     0.42840    -1.01838
O      0.24811     0.22195     3.29345
H     -0.37374    -0.40137     2.83582
O     -0.52386     1.41361     3.40468
H     -0.72477     1.43235     4.34512
O     -1.21083    -1.35767     1.76441
H     -1.45382    -1.00068     0.87811
O     -0.08292    -2.17363     1.45419
H      0.49879    -1.52879     1.00037
O     -0.21149     2.07907    -0.32671
H      0.44876     2.35053    -1.01337
O     -1.43768     2.21767    -1.04824
H     -1.96236     2.67985    -0.38194
O     -2.68935     2.23009     1.52076
H     -1.85249     1.97876     1.93778
O     -3.19585     0.94155     1.16453
H     -3.92460     0.82299     1.78202
O      2.12954    -0.57468    -2.36171
H      1.94474    -0.58950    -1.41126
O      1.06589    -1.36946    -2.88512
H      1.19549    -2.21519    -2.40946
O      1.72297     2.28619    -2.09470
H      1.87707     1.47924    -2.61519
O      2.92739     2.43179    -1.33948
H      2.72130     1.96748    -0.51535
O      1.31752    -3.27567    -1.03951
H      1.88967    -4.04646    -0.96541
O      0.00610    -3.83394    -0.94298
H     -0.29379    -3.41333    -0.11770
