 36
-1364.9734376674612
O     -1.65519     0.62423    -1.50209
H     -1.90551     1.51305    -1.20559
O     -0.36661     0.55571    -0.88221
H     -0.33450    -0.35893    -0.49268
O      0.54004    -2.15878    -2.85858
H      1.26877    -1.52240    -2.95560
O     -0.48624    -1.65488    -3.71250
H     -0.88321    -0.95048    -3.18200
O      0.59239    -1.50981     2.89354
H      0.13851    -0.63332     2.89160
O     -0.52686    -2.39189     3.01149
H     -0.53338    -2.58870     3.95316
O      2.64886    -0.06266    -1.90604
H      3.24356     0.66931    -1.69792
O      1.64337     0.60033    -2.68628
H      0.91946     0.69311    -2.03712
O     -2.64321    -0.20740     0.97981
H     -2.60407    -0.42900     0.03664
O     -3.03090    -1.44078     1.58211
H     -2.17629    -1.77588     1.89306
O      2.46791     1.82486     0.06025
H      1.65589     2.27144    -0.22376
O      1.95218     0.72663     0.80698
H      1.98121    -0.00993     0.17023
O     -0.04766     3.43555    -0.54497
H     -0.02788     4.38195    -0.36184
O     -1.27598     3.03440     0.06289
H     -0.94197     2.59681     0.87886
O     -0.20764    -1.99521    -0.35009
H     -0.06209    -2.26798    -1.29336
O      1.15516    -1.89262     0.08966
H      1.05240    -2.03527     1.04250
O     -0.10396     1.78028     2.09666
H      0.67939     1.31665     1.71635
O     -0.84105     0.70803     2.67536
H     -1.52918     0.52174     1.99526
