 12
-454.9724195728523
O      0.20947     1.32355    -0.68331
H     -0.62598     0.92720    -0.38525
O     -0.18936     2.65335    -1.03547
H     -0.11198     2.62670    -1.99419
O      1.27348    -1.76327     0.77511
H      1.49549    -1.60151     1.69814
O      2.12895    -0.85150     0.08463
H      1.51569    -0.12848    -0.12382
O     -1.64461    -0.26898     0.81085
H     -2.59364    -0.30593     0.66572
O     -1.19032    -1.15173    -0.22277
H     -0.37383    -1.47975     0.19136
