 28
-1061.640751798211
O      0.21619    -2.47343    -1.99371
H      0.01813    -2.93669    -2.81271
O      1.41165    -1.77547    -2.32996
H      1.10763    -0.84842    -2.28823
O     -0.00544     0.17707     2.33027
H     -0.96181     0.17566     2.54461
O      0.17027    -1.10888     1.71966
H      0.93761    -0.92870     1.13033
O      0.60314     2.01754     0.50293
H      0.45840     1.41035     1.25796
O     -0.42900     2.99081     0.65529
H      0.94940     2.59213    -1.51366
O     -2.02896    -1.37740     0.30105
H     -1.24308    -1.46654     0.88705
O     -1.42956    -0.72366    -0.81694
H     -0.91361    -1.44673    -1.21940
O     -2.67604     1.05797     1.31818
H     -2.52143     0.23824     0.80301
O     -2.61475     0.58848     2.66757
H     -3.47174     0.16533     2.78929
O      0.69844     0.79222    -1.89258
H      0.00459     0.82401    -1.20515
O      0.77586     2.13846    -2.35012
H     -1.20437     2.43622     0.81763
O      3.31382    -1.33550    -0.16104
H      2.89853    -1.93286    -0.79976
O      2.20960    -0.48860     0.15167
H      2.29165     0.25572    -0.46695
