 36
-1364.979443201318
O      0.87708     2.25032    -1.03875
H      1.02369     1.49089    -1.64496
O      1.31875     1.69453     0.19837
H      0.60856     1.98450     0.81565
O     -1.16934    -2.14953     0.11374
H     -0.98052    -3.09723     0.07700
O     -1.19211    -1.79034    -1.26512
H     -1.74394    -0.97933    -1.21059
O     -1.56830     1.45729     2.08065
H     -0.91079     0.73716     2.14873
O     -0.73823     2.54612     1.67633
H     -1.33053     3.02460     1.06183
O      0.12995    -0.54257     1.80812
H     -0.29849    -1.14113     1.15995
O      1.04337    -1.39848     2.48321
H      1.85082    -1.15517     1.98803
O     -1.55830     3.27711    -1.47679
H     -0.66307     2.95103    -1.24879
O     -1.95014     3.91047    -0.26399
H     -1.81296     4.84084    -0.46325
O     -2.29721     0.61809    -1.01230
H     -2.44593     1.47694    -1.44323
O     -3.22261     0.65975     0.07625
H     -2.64295     0.93434     0.81329
O      2.72038    -0.57270     0.61206
H      2.26141     0.25335     0.35436
O      2.54939    -1.38400    -0.54691
H      2.15842    -2.19739    -0.18524
O      0.67243    -0.94295    -3.14852
H      0.05795    -1.25170    -2.46508
O      1.39344     0.05932    -2.43970
H      2.01378    -0.48385    -1.91290
O      1.71849    -3.73972     0.53593
H      2.36746    -4.38536     0.83216
O      0.67531    -3.88086     1.49033
H      0.79496    -3.05910     2.00769
