 20
-758.3080542426837
O     -0.68585    -1.59752     0.70046
H      0.02898    -2.16790     0.39194
O     -1.44249    -1.44502    -0.50482
H     -2.07410    -0.74670    -0.24172
O      0.00966     1.21312    -1.25889
H      0.26040     1.20442    -0.31325
O      0.49449    -0.06534    -1.69715
H     -0.25544    -0.63145    -1.42239
O      1.85127     1.97859     1.58781
H      1.46808     2.44084     2.33814
O      0.82405     1.02405     1.31513
H      1.33169     0.19070     1.38172
O      2.38280    -1.16407     1.17484
H      3.34619    -1.12841     1.20532
O      2.11712    -1.84674    -0.04428
H      1.84926    -1.11492    -0.62320
O     -2.67558     1.08972    -1.40948
H     -1.70716     1.22348    -1.35348
O     -2.95686     0.70947    -0.05614
H     -3.90625     0.86107    -0.01533
