 20
-758.3059884542828
O     -1.16999    -1.22458     1.97620
H     -1.75763    -0.83383     1.31282
O     -0.72396    -0.06632     2.68250
H      0.14808     0.07166     2.28588
O      2.61049     1.32876     0.20590
H      2.52349     0.97568    -0.69057
O      1.40060     0.84325     0.80245
H      0.76597     1.54801     0.59604
O      0.32882    -1.82371    -0.46453
H      0.09612    -1.73472     0.47501
O     -0.89141    -2.32031    -1.00931
H     -0.61482    -3.19309    -1.30440
O      0.12935     0.99983    -2.18294
H     -0.08625     0.94874    -3.12130
O      1.26825     0.14548    -2.08448
H      0.90928    -0.56307    -1.51589
O     -1.31621     1.84771     0.59298
H     -1.42355     1.51175     1.49323
O     -1.58593     0.64394    -0.14898
H     -0.96323     0.73852    -0.89570
