 32
-1213.3170382298078
O     -1.34578     1.89620     1.55715
H     -1.09822     1.75635     0.61526
O     -0.15869     1.53493     2.25897
H     -0.13583     0.56544     2.12373
O     -1.97368    -1.30355    -0.85117
H     -2.50347    -1.05036    -0.07341
O     -1.14488    -2.34254    -0.29962
H     -0.58858    -2.49763    -1.08443
O      0.24913    -1.99824    -2.55407
H      1.18188    -1.81711    -2.32480
O     -0.17720    -0.68961    -2.93463
H     -0.96063    -0.88960    -3.45922
O      0.17073    -1.01241     1.62523
H     -0.37011    -1.53563     0.98658
O      1.50927    -1.24446     1.18039
H      1.94038    -0.42798     1.48027
O      2.49120    -1.25976    -1.32532
H      2.16237    -1.30555    -0.40725
O      2.73009     0.13430    -1.49640
H      1.88425     0.45244    -1.85308
O     -0.81603     1.36375    -0.97688
H     -0.81930     0.42044    -1.22799
O      0.41562     1.82774    -1.52889
H      0.84074     2.23633    -0.74784
O      2.65771     1.33400     0.90432
H      2.81736     1.04625    -0.01320
O      1.79470     2.45887     0.70489
H      1.13349     2.30247     1.41314
O     -2.74986    -0.21938     2.35379
H     -2.40272     0.68476     2.19652
O     -3.52809    -0.40440     1.16991
H     -4.39106    -0.62430     1.53181
