 24
-909.9798534010037
O     -1.63771    -0.93798     0.96695
H     -2.39506    -0.54972     0.48060
O     -1.40237    -2.10646     0.16485
H     -0.69026    -2.49490     0.69908
O      0.01349    -0.34730    -1.36266
H     -0.61791    -0.95649    -0.94215
O     -0.44674     0.92290    -0.86936
H      0.33645     1.48609    -1.05056
O      2.27777    -0.93111    -0.06579
H      1.52564    -0.62794    -0.61339
O      2.51823     0.22238     0.75035
H      1.87652     0.06735     1.47338
O     -3.55822    -0.02654    -0.57268
H     -3.99511    -0.62367    -1.18786
O     -3.06800     0.99297    -1.45019
H     -2.11441     0.94919    -1.24527
O      0.66564    -0.85564     2.29716
H     -0.19624    -0.62859     1.90846
O      0.80069    -2.18015     1.74200
H      1.48452    -1.99057     1.07181
O      1.95212     2.14779    -1.04252
H      2.38429     1.57137    -0.37990
O      1.67970     3.30922    -0.26081
H      2.16989     3.97581    -0.75159
