 32
-1213.3165202851733
O      2.26299    -0.31521     1.21334
H      2.16370    -0.65753     0.30597
O      2.45007     1.08363     0.98020
H      1.53900     1.39485     0.79188
O     -1.60813     0.00732    -2.17869
H     -0.63348     0.06821    -2.19719
O     -1.93461     1.21303    -1.48517
H     -2.69266     0.93537    -0.94968
O      1.05416     0.00819    -1.90259
H      1.90314     0.48665    -1.97252
O      1.49168    -1.18750    -1.24506
H      0.65664    -1.67694    -1.13279
O     -0.01957     1.91755     0.26546
H     -0.62765     1.74632    -0.48354
O     -0.90263     1.71332     1.38468
H     -0.64737     0.81450     1.66398
O      3.44976     1.25450    -1.51527
H      3.36927     1.27477    -0.53816
O      4.68436     0.57492    -1.70397
H      5.18653     1.24821    -2.16892
O     -2.20816    -2.05191    -0.61091
H     -2.09323    -1.37373    -1.30802
O     -0.83581    -2.34920    -0.32753
H     -0.72680    -1.93927     0.54939
O     -1.06722    -0.80176     3.06860
H     -1.96156    -0.78292     2.67637
O     -0.33937    -0.85645     1.84631
H      0.60165    -0.79631     2.10014
O     -3.44657     0.51980     0.85030
H     -2.80824     1.08364     1.31232
O     -3.23307    -0.74014     1.48692
H     -2.96865    -1.30117     0.72886
