 24
-909.9764737883785
O     -2.08261    -0.46859     1.10726
H     -2.71298    -0.58649     0.38223
O     -0.86789    -0.65550     0.37098
H     -0.35342    -1.23122     0.96466
O      0.25535     0.15230    -2.43820
H     -0.45641    -0.48747    -2.28644
O     -0.36879     1.35005    -1.95017
H      0.24541     1.62994    -1.23697
O      1.99396    -1.26914    -0.45680
H      1.58803    -0.74151    -1.15834
O      2.81969    -0.28862     0.18549
H      2.73530    -0.56519     1.10910
O     -2.45007    -0.98003    -2.25929
H     -2.89841    -0.92705    -3.11265
O     -3.03622     0.11100    -1.54180
H     -2.31146     0.75872    -1.57109
O      1.62760    -0.22314     2.84382
H      1.17240     0.52729     2.40552
O      0.67874    -1.27800     2.63688
H      0.18280    -1.27556     3.46251
O      1.24010     1.86853     0.17031
H      1.89917     1.14018     0.21201
O      0.36379     1.54586     1.26086
H     -0.25566     0.90339     0.85949
