 20
-758.3006863387774
O     -1.31871    -1.03164     0.74455
H     -1.88116    -0.34749     0.31507
O     -1.97948    -1.25199     1.99611
H     -1.48778    -0.65109     2.57057
O      2.96160     0.58679    -1.13953
H      3.59876     1.11709    -1.62760
O      2.49101     1.53613    -0.17158
H      2.08372     0.92393     0.46909
O      0.70320     0.43755     2.56047
H      1.23299    -0.02215     3.21804
O      1.14321    -0.23631     1.36995
H      0.27835    -0.55948     1.03298
O      0.41894    -0.00981    -1.64764
H      1.37792     0.17284    -1.55877
O      0.40316    -1.43865    -1.71280
H     -0.21171    -1.62568    -0.98983
O     -2.25904     0.28252    -1.72516
H     -1.29065     0.36343    -1.80371
O     -2.46205     1.00252    -0.50315
H     -3.33026     1.39009    -0.64664
