 32
-1213.3043823221271
O      1.48047     2.06038    -0.54530
H      1.87124     1.17226    -0.69373
O      0.12341     1.83554    -0.95883
H     -0.38189     2.16419    -0.18838
O     -1.16163    -0.70030    -0.50151
H     -0.78364    -0.09764    -1.17171
O     -1.33213    -1.92888    -1.18743
H     -0.70382    -2.47685    -0.69063
O      0.82094     1.24135    -3.63897
H      0.47323     1.87808    -2.99896
O      0.25290     0.05075    -3.09726
H     -0.30102    -0.28530    -3.81172
O     -1.18085     2.72867     1.20888
H     -0.81417     2.37080     2.03240
O     -2.58712     2.81035     1.45662
H     -2.82619     1.86975     1.42488
O      1.73171    -1.39720    -1.37403
H      1.29003    -0.80798    -2.01285
O      2.32847    -0.45970    -0.47292
H      1.80619    -0.62249     0.32502
O      0.67790    -3.05826     0.79304
H      0.98572    -2.42919     1.46161
O      1.88439    -3.70555     0.37280
H      2.06837    -3.22022    -0.44268
O      0.68134    -0.19375     1.90478
H     -0.27707    -0.26975     2.08690
O      0.95780     1.15834     2.27362
H      1.33143     1.50836     1.45129
O     -2.72787     0.07103     1.44765
H     -2.19185    -0.23698     0.68384
O     -1.90866    -0.36701     2.53139
H     -2.42169    -1.09517     2.89499
