 40
-1516.6425016121316
O      2.85411     1.34238     0.02974
H      2.70591     0.39486     0.25156
O      3.56564     1.29214    -1.19908
H      2.83604     1.23772    -1.83002
O      0.89530    -1.42558    -0.15018
H      0.80503    -0.62833    -0.72795
O      1.88186    -1.03223     0.80065
H      1.28937    -0.68286     1.49844
O     -0.91744     3.68743     0.34441
H     -1.65058     3.19374    -0.04493
O      0.18056     2.97973    -0.23382
H      0.84417     3.06210     0.46815
O     -0.62678     0.68287    -2.47658
H     -1.34783     0.80971    -1.81297
O      0.52396     0.73881    -1.63324
H      0.41770     1.61892    -1.21031
O     -0.24495    -0.23119     2.14156
H     -0.88519    -0.85325     1.72823
O     -0.86230     1.02750     1.89005
H     -0.23511     1.62624     2.32050
O      1.38538     2.89642     2.43136
H      1.45108     3.72603     2.91873
O      2.58576     2.21126     2.77888
H      2.98974     2.13823     1.89751
O     -3.49181     0.75857    -0.08479
H     -3.39356    -0.21054    -0.04056
O     -2.15793     1.11372    -0.41106
H     -1.72316     1.02517     0.46365
O     -1.79772    -2.02881     0.98281
H     -1.34849    -2.86702     0.73941
O     -2.67478    -1.80070    -0.12256
H     -2.10216    -1.94857    -0.90186
O     -0.45338    -4.26289     0.41288
H      0.03981    -4.84725     0.99721
O      0.47995    -3.99584    -0.62875
H      0.68863    -3.04997    -0.45354
O     -1.31326    -2.56512    -2.30616
H     -0.97543    -3.45769    -2.15128
O     -0.15888    -1.94440    -2.88611
H     -0.39037    -1.00002    -2.81475
