 16
-606.6376766575356
O     -2.05753    -0.51002     1.05182
H     -2.73500    -0.83512     1.65234
O     -0.95035    -0.31893     1.94290
H     -0.73734     0.60911     1.76473
O      0.33930     1.89561     0.54817
H      0.53537     1.32124    -0.22095
O      1.45160     1.56335     1.39500
H      2.18603     1.99533     0.94824
O      1.36085     0.05773    -1.12481
H      0.65644    -0.60676    -1.27329
O      2.22994    -0.63440    -0.21680
H      1.87517    -0.32630     0.63012
O     -0.83323    -1.47276    -1.15862
H     -1.31585    -1.16932    -0.36700
O     -1.33350    -0.56470    -2.14306
H     -1.14887    -1.06780    -2.93958
