 36
-1364.9739481519878
O     -1.37813     1.51700     2.45400
H     -1.52799     0.72890     1.90528
O      0.01577     1.37442     2.76775
H      0.37760     2.07986     2.19630
O     -3.30215     1.55707    -0.26602
H     -4.16286     1.66038    -0.67952
O     -2.46060     2.13975    -1.25940
H     -1.93939     2.76190    -0.70739
O      2.38410    -1.57159     2.49709
H      2.89599    -1.57931     1.67833
O      1.16781    -1.03582     1.98316
H      0.98800    -0.26274     2.54532
O      0.59704     1.40639    -1.26405
H      0.03687     0.93523    -1.92468
O      1.19976     0.29198    -0.60252
H      0.54108     0.03657     0.07090
O     -1.08208    -1.95848     0.95232
H     -0.21691    -1.83024     1.37984
O     -1.38611    -0.58736     0.67520
H     -1.72799    -0.63747    -0.24138
O     -1.12514     3.45278     0.67176
H     -1.47712     2.91529     1.40781
O      0.25506     3.08533     0.77085
H      0.36591     2.50763    -0.01568
O     -2.05445    -0.42261    -1.95790
H     -2.28990     0.52371    -1.92023
O     -0.80658    -0.35124    -2.66483
H     -0.39210    -1.19589    -2.39625
O      1.01127    -3.62472    -1.81055
H      1.87407    -3.21461    -1.66566
O      0.17072    -2.51059    -1.50569
H     -0.36476    -2.81255    -0.75315
O      3.07559    -1.53356    -1.25980
H      2.39458    -0.87010    -1.02014
O      3.85318    -1.62049    -0.06977
H      4.63257    -1.10215    -0.29215
