 36
-1364.972082316528
O      1.44601     1.48502    -1.59352
H      1.61413     1.63983    -0.64341
O      0.21341     2.18744    -1.78551
H     -0.34476     1.80576    -1.07100
O     -0.79891     1.66162    -4.24921
H     -0.36282     1.80791    -3.38530
O     -0.54750     0.27079    -4.45641
H      0.09433     0.27247    -5.17446
O     -0.75012    -0.52217     3.35463
H     -1.70141    -0.51621     3.13099
O     -0.37250     0.71280     2.73172
H      0.54823     0.80798     3.01053
O      3.41454    -1.41213    -0.00425
H      2.95594    -1.67544    -0.81210
O      2.48017    -0.48146     0.52281
H      1.67299    -1.04288     0.63317
O     -3.75187    -1.76649     2.19459
H     -4.64982    -1.53557     2.44741
O     -3.15419    -0.47340     2.14243
H     -2.83726    -0.42891     1.21748
O     -1.13463     1.11754     0.20496
H     -0.81927     0.91504     1.11135
O     -1.80264    -0.09262    -0.16283
H     -1.22479    -0.41997    -0.88821
O      2.22598     1.66286     2.00162
H      2.53244     0.86008     1.53489
O      1.52037     2.27322     0.91417
H      1.73629     3.20400     1.02466
O     -0.31241    -1.02416    -2.16644
H     -0.46231    -0.57078    -3.02941
O      1.11422    -1.10167    -2.12344
H      1.35109    -0.16235    -1.98963
O      0.33405    -1.99415     0.64382
H     -0.22506    -2.40575    -0.02821
O      0.01600    -2.71391     1.84328
H     -0.24290    -1.97854     2.42216
