 36
-1364.9766682249258
O      0.07150     1.13855     1.84421
H     -0.34254     0.29130     2.12481
O      1.44269     0.75452     1.66092
H      1.53617     0.88754     0.69541
O     -0.18831    -1.12376    -0.15182
H      0.03306    -0.39493    -0.75849
O     -1.34737    -1.69738    -0.76870
H     -1.92073    -1.77597     0.01482
O     -2.18839    -1.45305     1.82281
H     -2.53087    -0.54078     1.69268
O     -1.02324    -1.18071     2.61281
H     -0.44010    -1.92418     2.38695
O      3.48365    -1.18103    -0.92858
H      3.24683    -1.48134    -0.02584
O      2.36433    -1.66012    -1.68171
H      2.73840    -2.43168    -2.12157
O     -2.93574     1.01394     1.20829
H     -2.38521     1.50302     0.54518
O     -4.12488     0.75078     0.46415
H     -4.74722     1.31518     0.93024
O     -0.30937     2.92807    -0.06768
H     -0.18064     2.40546     0.75324
O     -1.45427     2.25361    -0.60255
H     -1.08199     1.75701    -1.35517
O      1.70902     0.97146    -0.96900
H      2.49404     0.47691    -1.26924
O      1.78054     2.22764    -1.64223
H      1.08640     2.68265    -1.12906
O     -0.84678    -0.25212    -3.50228
H     -1.14702    -0.96155    -2.91749
O     -0.38677     0.68105    -2.51493
H      0.51534     0.90540    -2.79703
O      2.58040    -1.69198     1.60656
H      2.22878    -0.82103     1.87452
O      1.38829    -2.46305     1.46428
H      0.95278    -2.03240     0.70296
