 32
-1213.3032319220401
O      0.51879    -0.33290     2.87667
H      1.15489    -0.88452     2.40034
O      0.48186     0.79550     2.01068
H     -0.45754     0.81734     1.75534
O     -1.33182    -1.27339    -1.07277
H     -0.70038    -1.73701    -1.66742
O     -0.75275    -1.54979     0.21548
H     -1.42505    -1.15786     0.81029
O     -2.39327     1.21381    -0.82482
H     -2.26540     0.28250    -1.06886
O     -1.13279     1.37396    -0.17026
H     -0.91786     2.32466    -0.23407
O      0.94529     0.70573    -1.72403
H      0.15547     0.82467    -1.14960
O      2.03553     1.11395    -0.89156
H      2.08306     0.39724    -0.23528
O      0.72365     3.30313    -0.10010
H      1.37780     2.65950    -0.43422
O      1.03676     3.37920     1.29358
H      0.92684     2.45735     1.58182
O      1.62969    -1.63988    -2.85831
H      1.31915    -0.78492    -2.49934
O      0.57484    -2.51939    -2.43278
H      1.02733    -3.05178    -1.76334
O      2.36147    -2.69721    -0.10440
H      2.96512    -2.31615    -0.75067
O      1.84326    -1.51657     0.49576
H      0.87813    -1.61036     0.31412
O     -2.37217    -0.23893     1.90791
H     -2.42072    -0.25791     2.87109
O     -3.71792     0.01900     1.50822
H     -3.57292     0.81786     0.98392
