 36
-1364.974467346098
O      2.81890    -0.07788     2.80051
H      1.90999    -0.24775     3.11491
O      2.50715     0.49478     1.52430
H      2.92206     1.36008     1.58693
O      0.16059    -0.50317     3.00542
H     -0.12381    -0.00176     2.21125
O      0.03043    -1.86109     2.59719
H      0.67962    -1.95229     1.86791
O     -1.76300     3.11323    -0.81713
H     -1.99759     2.21317    -0.51042
O     -2.78017     3.39123    -1.77882
H     -3.16934     4.18054    -1.39268
O     -1.64411     0.56363     0.06410
H     -1.96997    -0.22700     0.53851
O     -0.51450     0.88569     0.88336
H      0.12824     1.28030     0.24888
O      0.66537     2.69959    -1.89863
H     -0.21176     2.95927    -1.56270
O      1.26308     2.18205    -0.69635
H      1.90955     1.59180    -1.12414
O     -2.37313    -1.56345     1.56865
H     -1.57182    -1.78018     2.10203
O     -2.57161    -2.77817     0.85064
H     -3.46491    -3.00373     1.12062
O      2.16940     0.33551    -2.30998
H      2.18856    -0.49398    -1.80048
O      0.88315     0.26560    -2.94423
H      0.68836     1.21429    -2.99005
O     -0.54417    -1.65793    -1.45127
H     -0.39418    -0.90341    -2.04281
O     -1.90133    -2.01312    -1.70590
H     -2.15759    -2.30507    -0.81839
O      2.43521    -1.45356    -0.29711
H      2.62425    -0.79641     0.39972
O      1.35953    -2.16633     0.31567
H      0.62724    -2.01426    -0.32210
