 32
-1213.3079069842395
O      2.32940     0.67395    -1.81381
H      2.03145    -0.20996    -2.06957
O      3.35079     0.40802    -0.84271
H      2.88683    -0.18205    -0.22174
O      0.82660    -1.57798     1.61759
H      0.25091    -0.88865     2.02140
O      1.48974    -0.82320     0.60970
H      0.80461    -0.77366    -0.09139
O      0.00664    -1.11319    -1.52436
H     -0.39569    -1.99059    -1.38550
O     -0.63760    -0.62023    -2.69172
H     -1.23931     0.02651    -2.29428
O      1.64021     3.41988     0.75996
H      1.02990     3.30724     0.01530
O      1.92513     2.06870     1.11627
H      2.71573     1.85306     0.59381
O     -0.62822    -3.27875     0.21226
H     -0.02168    -2.79083     0.81394
O     -1.78768    -3.38584     1.03372
H     -1.98930    -4.32106     0.93950
O     -1.20620     1.63708    -0.96151
H     -1.02021     1.68934     0.00169
O     -0.13084     2.40091    -1.50037
H      0.55758     1.73102    -1.64046
O     -0.62573     1.60911     1.62493
H      0.35639     1.66261     1.64849
O     -0.89633     0.33517     2.21486
H     -1.66720     0.05079     1.68378
O     -2.70663    -1.26190    -0.43167
H     -2.55433    -2.04540     0.11873
O     -2.91910    -0.25281     0.56628
H     -2.95498     0.53319     0.00687
