 40
-1516.6448490471678
O      2.24621    -0.91824    -2.12582
H      1.27536    -0.92338    -2.26774
O      2.48427    -2.24171    -1.63381
H      3.19699    -2.07707    -1.00004
O     -1.55312     0.27393     2.22653
H     -2.19747     0.83270     1.73264
O     -1.62986    -0.99772     1.56482
H     -2.54540    -1.03103     1.22080
O      2.26044     2.68696    -0.77347
H      2.15034     2.64028     0.18700
O      3.30940     1.74025    -0.98569
H      2.83182     0.97900    -1.35484
O      0.36089    -2.66817    -0.06953
H      1.18287    -2.62169    -0.60393
O      0.75782    -2.05313     1.16031
H     -0.07648    -1.59093     1.39431
O     -3.10784     2.80727     0.24121
H     -2.26563     2.45069    -0.10781
O     -3.49289     1.72645     1.10525
H     -4.24604     1.35167     0.62546
O      1.19257     0.76467     0.86886
H      2.04954     0.28091     0.85379
O      1.04112     0.99081     2.27014
H      0.10607     0.71641     2.35502
O     -4.04678    -1.14266     0.37763
H     -4.43972    -1.95144     0.03007
O     -4.06135    -0.26162    -0.74039
H     -3.12377    -0.29191    -1.00368
O     -0.41614    -0.56458    -2.39488
H     -0.54234     0.39833    -2.29400
O     -1.31752    -1.07620    -1.41000
H     -0.74955    -1.70295    -0.90991
O      3.51797    -0.50177     1.06998
H      4.17261    -0.32776     1.75635
O      3.43767    -1.92637     1.05256
H      2.49082    -2.03876     1.26920
O     -0.19282     2.02166    -1.70836
H      0.69199     2.29029    -1.37653
O     -0.85750     1.60621    -0.51257
H     -0.15254     1.14008    -0.00338
