 20
-758.3055437142542
O     -0.04900    -1.81065     0.78948
H     -0.65625    -1.16817     0.38226
O     -0.90876    -2.46700     1.71525
H     -0.93693    -3.35785     1.35127
O      0.67468     0.95033     2.52567
H      0.64384     0.69946     3.45474
O      1.63258     0.03920     1.98519
H      1.06407    -0.68489     1.65941
O      1.62266     1.16846    -0.70727
H      1.96272     0.90267     0.15909
O      1.46200    -0.12262    -1.31814
H      0.78263     0.07287    -1.99226
O     -0.51586     0.19095    -3.10339
H     -0.70564    -0.40368    -3.83503
O     -1.60758    -0.09398    -2.21961
H     -1.53863     0.66798    -1.61416
O     -0.96739     1.76631    -0.30597
H     -0.00090     1.64899    -0.42889
O     -1.26398     0.76860     0.67765
H     -0.63292     0.98238     1.39071
