 32
-1213.3083884735681
O      0.32223    -1.39051     0.67225
H      0.13967    -0.63262     0.06670
O     -0.92989    -2.07727     0.69530
H     -1.57620    -1.32631     0.66786
O      2.40362    -1.42553    -1.69794
H      3.15480    -1.77625    -2.18523
O      1.53980    -2.56057    -1.65126
H      1.32000    -2.57143    -0.70666
O     -2.59584    -0.05691     0.40101
H     -2.30428     0.83709     0.68144
O     -3.01703     0.16574    -0.93888
H     -2.50119    -0.50839    -1.40674
O     -1.33967     2.18539     1.24124
H     -0.64090     1.76323     1.79105
O     -0.61053     2.91753     0.24795
H      0.21578     3.16155     0.70574
O      1.91798     3.21556     1.13521
H      2.57176     3.82868     0.78533
O      2.49075     1.94854     0.82952
H      2.01758     1.70796     0.00152
O     -1.60955    -3.21701    -1.68864
H     -1.50220    -3.05952    -0.73452
O     -1.19554    -1.94025    -2.19663
H     -0.25334    -2.08666    -2.36341
O      0.50440     0.92174     2.65332
H      1.38836     0.74836     2.29603
O      0.05128    -0.35433     3.11333
H      0.10303    -0.90001     2.30380
O      1.32324     1.02654    -1.36924
H      1.67507     0.14088    -1.58464
O     -0.00584     0.66213    -0.98042
H     -0.37505     1.52361    -0.66027
