 20
-758.3084141653278
O     -0.60954    -0.84945     2.11077
H     -1.01338    -0.06730     1.70585
O      0.17257    -1.35263     1.02572
H      1.05414    -0.95560     1.17341
O      2.67797    -0.52725    -0.21543
H      2.17255     0.25496    -0.51815
O      2.61113    -0.31398     1.20037
H      3.45651    -0.66948     1.48881
O     -1.08284    -1.19199    -1.26777
H     -0.65347    -1.32495    -0.38890
O     -2.42300    -0.95485    -0.84106
H     -2.91838    -1.41893    -1.52101
O      0.95157     1.38598    -0.83807
H      0.03018     1.50226    -0.53340
O      0.76479     0.88870    -2.16011
H      0.32952     0.04289    -1.98392
O     -1.62893     1.48930    -0.16534
H     -2.05114     0.64159    -0.41251
O     -1.76353     1.45846     1.25476
H     -1.39496     2.31378     1.48799
