 36
-1364.9725424912624
O      3.16116    -1.89767    -0.09961
H      2.37682    -2.46948    -0.06364
O      2.84521    -0.95033     0.93271
H      2.92284    -0.12678     0.41251
O     -0.19374    -4.06078    -0.35928
H     -1.00782    -3.72559     0.04500
O      0.68382    -2.95035    -0.19476
H      0.36470    -2.32510    -0.87136
O     -0.71078     3.65249     1.88811
H     -0.48013     4.19935     2.64558
O      0.50703     2.94971     1.64926
H      0.28217     2.04853     1.95534
O      0.03187    -0.39279     1.21057
H      0.88347    -0.79009     1.47039
O     -0.28039     0.44427     2.32404
H     -1.23411     0.59612     2.18141
O     -1.01430    -1.20943    -2.77529
H     -1.73149    -1.24866    -2.12441
O     -0.01385    -0.63712    -1.92331
H      0.75344    -0.50770    -2.50532
O     -2.60897     1.72156     1.80144
H     -2.12709     2.56643     1.84141
O     -3.03924     1.68575     0.44046
H     -2.20758     1.80457    -0.05697
O      0.62629     2.28290    -1.11857
H      0.71421     2.82560    -0.31892
O     -0.65526     1.69306    -0.88525
H     -0.48110     0.76440    -1.14991
O      2.81367     0.75520    -1.08286
H      1.98936     1.25946    -1.23111
O      2.75685    -0.21132    -2.14270
H      3.06330    -0.98653    -1.63960
O     -2.11629    -1.83346     0.56485
H     -1.28370    -1.36671     0.77815
O     -2.62922    -1.02445    -0.50436
H     -3.17442    -0.36634    -0.04256
