 24
-909.9787230660343
O     -2.26841    -0.76200     0.37085
H     -1.89456     0.04042    -0.03580
O     -1.14453    -1.19531     1.14344
H     -0.53141    -1.51108     0.44054
O      0.37201     1.45265    -1.20197
H      0.81018     0.59067    -1.06818
O     -0.75935     1.35934    -0.33953
H     -0.39887     1.58607     0.53916
O      1.54782    -0.96032    -0.78899
H      1.75143    -0.94094     0.16875
O      0.45627    -1.89023    -0.85018
H      0.02355    -1.60053    -1.67811
O     -0.61386    -0.94716    -3.13254
H     -0.98109    -1.33551    -3.93151
O     -1.58774     0.04999    -2.81742
H     -1.01149     0.81216    -2.66889
O      2.47435     0.88700     1.15844
H      3.37740     0.73382     0.86912
O      2.14924    -0.37852     1.73657
H      1.44741    -0.10462     2.34964
O     -0.20444     0.56739     2.88479
H     -0.73786    -0.01192     2.28934
O     -0.32931     1.84474     2.25649
H     -0.96728     2.29134     2.82326
