 36
-1364.9788143472963
O      1.50721     2.44745    -0.59523
H      1.93768     1.56699    -0.61099
O      1.24613     2.56540     0.80446
H      0.28683     2.37565     0.84615
O      1.49816     2.21425    -3.56246
H      1.72088     2.63767    -2.72224
O      2.60275     1.31648    -3.72867
H      2.15803     0.46172    -3.63813
O     -1.85503    -1.74788     1.15248
H     -2.70021    -1.34200     0.86864
O     -1.43033    -0.81260     2.15409
H     -0.58372    -1.20950     2.43877
O      1.02405    -1.61963     2.87454
H      1.60816    -0.94933     2.45596
O      1.61383    -2.81799     2.38967
H      1.50879    -3.39464     3.14985
O     -4.83480     0.25535     1.01779
H     -5.63921     0.10981     0.51311
O     -3.86000    -0.25618     0.11609
H     -3.30403     0.53620    -0.04890
O     -1.23856     1.63857     1.05954
H     -1.37797     0.76214     1.47679
O     -1.86991     1.48789    -0.21243
H     -1.16486     1.09377    -0.76079
O      2.31035     0.04362     0.08457
H      1.53951    -0.54645    -0.04202
O      2.29809     0.28184     1.49897
H      1.99542     1.21680     1.49818
O     -0.20810     0.47737    -2.05794
H     -0.00518     1.20822    -2.66218
O      0.42861    -0.61192    -2.74094
H      0.47672    -1.24963    -2.00461
O      0.31122    -1.68644    -0.35679
H     -0.57157    -1.72490     0.07962
O      0.79517    -3.01880    -0.22587
H      1.09992    -2.98744     0.69316
