 24
-909.9640807851902
O     -2.97880    -2.18094    -1.04463
H     -2.13822    -1.94346    -0.60812
O     -3.62459    -0.89652    -0.99232
H     -4.40276    -1.06421    -1.53160
O     -0.74422    -1.23409     0.09966
H     -0.86490    -0.27731     0.22095
O     -0.49521    -1.67916     1.43632
H      0.46924    -1.75622     1.41102
O      1.95762     0.79603    -1.84107
H      2.33936     1.55960    -2.28330
O      2.61688     0.83745    -0.57556
H      1.86575     1.07951     0.00513
O     -1.80276     0.72967    -2.24742
H     -2.37643     0.15979    -1.70463
O     -0.91621     1.25939    -1.25724
H     -0.04751     0.99955    -1.60232
O      2.75279    -0.34748     2.46505
H      3.41636    -0.79877     2.99679
O      2.52449    -1.30793     1.42850
H      2.81332    -0.79796     0.65359
O      0.62297     1.10904     1.16294
H      0.69615     0.80001     2.07603
O      0.11678     2.44651     1.30706
H     -0.55082     2.42627     0.60717
