 24
-909.9730404482767
O     -3.45317    -0.25667     0.51173
H     -4.38002    -0.45728     0.66627
O     -2.89711    -1.56434     0.34714
H     -2.36085    -1.42710    -0.45874
O      1.95950     1.30969    -1.31320
H      1.25201     0.72537    -1.64260
O      1.21345     2.48443    -0.98348
H      1.38891     3.06781    -1.73085
O      2.22812    -1.66325    -0.34771
H      2.14159    -1.20818     0.52333
O      1.03445    -2.45449    -0.31809
H      1.38710    -3.34658    -0.37535
O     -1.02145    -1.24420    -1.55446
H     -0.22921    -1.61861    -1.12120
O     -0.69339     0.14683    -1.65461
H     -0.97106     0.48964    -0.78834
O      2.36089     0.94486     1.69580
H      2.56790     1.00736     0.75237
O      1.54375    -0.22313     1.74355
H      0.64468     0.12032     1.58801
O     -1.07789     1.98766     0.82559
H     -0.17855     2.14155     0.50034
O     -1.00645     0.57210     1.01605
H     -1.95352     0.32182     1.07036
