 32
-1213.3050022828181
O      0.07425     3.51659     1.29604
H     -0.08577     4.26663     1.87786
O      1.48173     3.31665     1.42071
H      1.49889     2.40610     1.74601
O     -0.20581    -2.22490    -0.20689
H      0.41207    -1.52396     0.09398
O      0.18234    -2.38386    -1.57571
H     -0.28076    -1.63993    -1.98603
O     -1.36590     1.25784     1.33646
H     -0.83473     2.07745     1.27136
O     -2.04366     1.25702     0.07804
H     -2.50308     0.39276     0.10530
O      1.44570    -0.22028     0.33081
H      1.13778     0.51326    -0.25676
O      1.46646     0.35135     1.64459
H      0.86603    -0.28070     2.09739
O      3.55988    -0.60859    -1.72768
H      3.21158    -0.26679    -0.89286
O      2.38036    -0.71937    -2.51919
H      1.96724    -1.53425    -2.19582
O      0.79459     1.25121    -1.77823
H      1.42034     0.70609    -2.30394
O     -0.37154     0.42797    -1.87193
H     -0.97585     0.84097    -1.22247
O     -1.51462    -1.15572     2.41364
H     -1.42061    -0.24554     2.07284
O     -0.15629    -1.41919     2.77997
H     -0.11484    -2.37727     2.69647
O     -2.98304    -1.35783    -1.72289
H     -3.80227    -1.86135    -1.73920
O     -2.74273    -1.29946    -0.32079
H     -1.90244    -1.80353    -0.23505
