 40
-1516.6495730226857
O      2.29238     1.68967    -0.83444
H      1.64573     2.35813    -0.52377
O      3.04038     1.45120     0.35713
H      2.45841     0.83417     0.85392
O      0.20685     0.33869     2.08937
H      0.32298     1.30042     1.91240
O      1.45826    -0.22098     1.68437
H      1.15820    -1.08837     1.33504
O      3.33562     3.97095     1.25101
H      3.32252     3.03433     0.96570
O      2.64075     3.83834     2.49984
H      3.00618     4.57338     3.00004
O      0.33552     3.23094     0.17088
H     -0.55350     2.90778    -0.11429
O      0.29530     2.94382     1.57361
H      1.10767     3.39998     1.88257
O     -1.90648    -1.61590    -2.98783
H     -1.01229    -1.37867    -2.67927
O     -2.75777    -0.99924    -2.01902
H     -2.56499    -0.04531    -2.12766
O      0.61692    -1.33529    -2.00655
H      0.66687    -2.05642    -1.35847
O      0.52283    -0.24075    -1.09313
H      1.37348     0.25881    -1.17798
O     -2.18528    -1.56650     0.52194
H     -2.48898    -1.44411    -0.40650
O     -2.15218    -0.21132     0.97392
H     -1.29680    -0.16319     1.45191
O     -1.14167    -3.90350    -1.39169
H     -1.65481    -3.54071    -2.13407
O     -2.12530    -4.54606    -0.57658
H     -2.32473    -3.86330     0.07880
O      0.43303    -3.68820     1.27435
H      0.36011    -4.26188     0.50192
O      0.32452    -2.41327     0.66737
H     -0.64726    -2.25005     0.63318
O     -1.49812     1.35888    -1.71626
H     -0.70349     0.86077    -1.43062
O     -1.90524     2.00564    -0.51374
H     -2.16777     1.25126     0.05098
