 40
-1516.6378513557095
O      0.17187     1.64933    -2.37346
H     -0.77912     1.83082    -2.22253
O      0.77920     2.63911    -1.53122
H      1.47041     2.12520    -1.06814
O     -1.92188    -0.59272    -2.83260
H     -1.81864    -1.30219    -3.48137
O     -3.16157    -0.91783    -2.19109
H     -2.85004    -1.15552    -1.30358
O      2.19488    -2.11061     3.10979
H      1.53825    -2.72077     2.73457
O      3.14595    -2.13291     2.03686
H      3.13974    -1.21713     1.72408
O     -1.61236    -0.69317     0.19745
H     -0.81622    -0.73246    -0.37746
O     -1.15657    -1.34039     1.37799
H     -0.61255    -0.64122     1.80553
O     -2.37997     1.75441    -1.53551
H     -2.98750     1.12591    -1.95558
O     -3.10483     2.99608    -1.55564
H     -2.74294     3.38260    -0.74634
O      2.32905     1.22867     0.19636
H      1.66445     1.09055     0.89007
O      2.80780    -0.10723     0.00320
H      2.07357    -0.50347    -0.51891
O     -1.05258     3.19442     0.40640
H     -0.35892     3.07672    -0.27413
O     -1.08676     1.88892     0.98979
H     -1.73474     1.40984     0.44320
O      0.70819    -3.29130     1.18171
H      0.00787    -2.61474     1.08608
O      1.56217    -3.03002     0.06635
H      2.40286    -2.86305     0.52398
O      0.68079     0.21424     2.52619
H      1.14080    -0.34685     3.17178
O     -0.02558     1.16428     3.33433
H     -0.53804     1.59071     2.62107
O      0.59982    -0.69416    -1.27240
H      0.47231     0.06733    -1.89368
O      0.65752    -1.83172    -2.13628
H      1.00244    -2.46120    -1.47958
