 20
-758.2999577839048
O     -1.07187    -0.53049     1.99704
H     -0.92049    -1.03170     2.80866
O     -2.44869    -0.81784     1.69289
H     -2.35828    -1.07813     0.76817
O      0.46427     1.25488     0.01634
H      0.54492     1.39701     0.97620
O      1.15264    -0.00549    -0.11082
H      0.38268    -0.58989    -0.27481
O      1.86531     0.00248     2.72757
H      1.80380    -0.28379     1.80296
O      1.29010     1.30985     2.60498
H      2.04247     1.87878     2.80444
O      0.17961    -0.26641    -3.47129
H     -0.03610     0.52167    -3.98196
O      1.53350    -0.02548    -3.07584
H      1.42836     0.20274    -2.14001
O     -1.05887    -0.98136    -1.22473
H     -0.71029    -0.80922    -2.12470
O     -1.99825     0.08618    -1.07213
H     -1.46529     0.71891    -0.56504
