 40
-1516.633462350061
O      1.71875     2.87604     1.82057
H      2.15233     2.05433     1.48125
O      1.02296     2.39195     2.96696
H      1.65992     2.52157     3.67538
O      2.84822     0.82160    -0.59335
H      1.96986     1.21634    -0.76989
O      2.74796     0.62615     0.81864
H      2.67035    -0.34194     0.91005
O      0.53279     1.84661    -1.35825
H     -0.38218     1.60801    -1.62747
O      0.36290     3.17761    -0.89537
H      0.59261     3.06776     0.04107
O     -0.86077     0.51788     2.24745
H     -0.18865     1.14329     2.57505
O     -0.64014     0.63575     0.84311
H     -0.08813    -0.15232     0.65239
O     -2.01874     1.27403    -1.88960
H     -2.62477     1.97454    -2.15435
O     -2.69394     0.67667    -0.78470
H     -2.00063     0.75627    -0.09329
O      0.08601     0.50636    -3.98889
H     -0.31642    -0.29990    -3.63843
O      1.42466     0.38025    -3.48785
H      1.54867     1.26336    -3.11837
O      1.04186    -1.36154     1.82150
H      0.53589    -2.09144     2.22056
O      1.93440    -2.03832     0.93438
H      1.44297    -1.94871     0.09437
O     -0.15689    -1.97574    -2.12430
H     -0.89209    -2.25241    -1.52960
O      0.63814    -1.21833    -1.19658
H      1.25514    -0.77086    -1.80325
O     -0.89562    -2.77600     2.91351
H     -1.22143    -3.01085     3.78696
O     -1.94188    -1.94037     2.41745
H     -1.53073    -1.04699     2.43800
O     -3.13286    -2.03734    -0.88063
H     -2.93529    -1.08844    -0.95569
O     -1.94369    -2.52198    -0.25568
H     -2.15055    -2.45539     0.69453
