 36
-1364.9816323938683
O      0.00790     2.36669    -1.14218
H      0.47213     2.65324    -0.33255
O      0.17055     0.95102    -0.99334
H     -0.54815     0.61463    -1.58262
O     -0.03194    -2.07613    -1.05587
H      0.36387    -2.51123    -0.27059
O     -1.39619    -2.46150    -0.95443
H     -1.72835    -1.86992    -0.26411
O      2.59370     0.30220     0.57741
H      2.52739     0.14999    -0.39248
O      3.27004    -0.90893     0.94691
H      2.56830    -1.35753     1.44859
O      0.68943    -3.10977     1.27028
H      0.26674    -3.72525     1.87781
O      1.07090    -2.02976     2.11906
H      0.38973    -1.35721     1.90842
O     -2.56903     2.30028     0.74008
H     -1.88265     2.83814     1.16807
O     -2.58295     2.73901    -0.62176
H     -1.63744     2.66716    -0.87680
O     -3.12649     0.13105    -1.77711
H     -3.15000     1.09576    -1.69399
O     -1.84317    -0.05045    -2.39980
H     -1.82832    -1.01384    -2.50650
O     -0.10491     2.46444     2.28350
H     -0.29761     1.51081     2.18784
O      0.93657     2.65028     1.31922
H      1.51221     1.87393     1.43378
O      2.37384    -0.94866    -1.72489
H      1.47745    -1.32885    -1.73352
O      3.17122    -2.11101    -1.45983
H      3.45275    -1.89168    -0.55546
O     -0.47002     0.04095     1.35488
H     -0.17112     0.31129     0.45027
O     -1.84951    -0.23329     1.13733
H     -2.18923     0.66752     0.95120
