 24
-909.9768043483319
O     -0.18696     1.15497     1.96091
H     -0.97497     0.98210     1.41038
O      0.47572    -0.11015     2.00695
H     -0.22230    -0.74557     2.23348
O      3.03740     1.07599    -0.88268
H      3.88149     1.48421    -1.09720
O      3.01448    -0.04097    -1.78679
H      2.47237    -0.65533    -1.25667
O     -0.10775    -1.12539    -0.77320
H     -0.03482    -0.22077    -1.13534
O      1.20587    -1.28494    -0.22930
H      1.11468    -0.77303     0.59987
O     -2.99082     0.14289    -0.55711
H     -2.79915    -0.65032    -0.04073
O     -2.12225     1.07331     0.08747
H     -1.62009     1.44905    -0.65429
O     -2.33382    -2.14985     1.37215
H     -2.78368    -2.99865     1.33301
O     -0.95963    -2.53875     1.37257
H     -0.66370    -2.23691     0.49096
O      0.46981     1.39620    -1.47876
H      1.44790     1.38951    -1.52482
O      0.20329     2.54852    -0.68637
H      0.48097     2.25816     0.19662
