 32
-1213.3115787170505
O      3.23064     0.26005    -0.67274
H      3.02100    -0.27513     0.12687
O      3.80067     1.42777    -0.10598
H      4.71772     1.32598    -0.37587
O     -1.05519    -2.35474    -0.72297
H     -1.18430    -2.06040     0.19950
O      0.36932    -2.30212    -0.80791
H      0.52077    -1.52468    -1.37832
O     -2.92520    -0.81510    -1.90714
H     -2.25946    -1.44343    -1.55794
O     -2.11225     0.00784    -2.73979
H     -2.32498    -0.30531    -3.62500
O      0.92969     1.71712     0.87267
H      0.57333     1.49801    -0.02015
O     -0.20919     2.25174     1.53019
H      0.09190     3.14311     1.72075
O      0.95391     0.00772    -2.09939
H      1.80866     0.24540    -1.68824
O      0.09744     1.00607    -1.54073
H     -0.75905     0.77922    -1.95441
O      1.75743    -0.37447     2.34723
H      1.55003     0.44792     1.86425
O      2.22077    -1.21841     1.28930
H      1.40709    -1.63097     0.95481
O     -1.15734    -1.08941     1.58548
H     -1.75708    -0.32441     1.58260
O     -0.77431    -1.25749     2.94976
H      0.14032    -0.92964     2.90054
O     -3.02250     0.79693     0.54275
H     -3.28792     0.32160    -0.25569
O     -2.37053     1.93512    -0.03208
H     -1.64090     2.05408     0.59860
