 24
-909.9679630914901
O     -1.29045    -2.03306     0.51218
H     -1.31450    -2.97701     0.32456
O     -1.98744    -1.48630    -0.61119
H     -1.24755    -1.07820    -1.09225
O      1.68071    -0.82062    -2.20876
H      2.42794    -0.87110    -1.59778
O      0.64835    -0.49390    -1.27745
H      0.47694     0.46714    -1.43615
O      1.96427    -1.95102     0.97941
H      1.31283    -1.58187     0.36053
O      3.17893    -1.74877     0.25425
H      3.40145    -2.65033    -0.00081
O     -2.74994     1.76030    -0.14887
H     -3.13910     2.49666     0.33206
O     -2.52461     0.83181     0.91763
H     -2.79143     0.00486     0.48978
O      0.93751     0.48841     2.59039
H      1.50256    -0.23021     2.27406
O      0.37207     0.93698     1.36010
H     -0.56176     0.68253     1.44159
O      0.39359     2.80319    -0.59139
H      0.52810     2.21551     0.17304
O     -0.36995     1.95446    -1.45553
H     -1.24699     1.97592    -1.03304
