 32
-1213.3089958292492
O      1.49411    -0.78801     1.98323
H      1.04380    -0.63218     2.83038
O      2.43892     0.28507     1.99815
H      3.03514    -0.02034     1.30538
O     -3.21803    -1.40050    -1.77160
H     -2.64498    -1.73995    -1.06773
O     -2.49796    -0.25304    -2.21385
H     -2.84316     0.45796    -1.64802
O      3.27361    -0.06025    -2.18242
H      4.18033    -0.35766    -2.29141
O      3.19998     0.09948    -0.77144
H      2.61803     0.88377    -0.70806
O      1.51272     1.99897    -0.04010
H      1.28318     1.67292     0.84393
O      0.24721     2.07829    -0.68757
H      0.28584     1.36213    -1.36053
O      0.13138     0.07691    -2.45273
H     -0.80275    -0.21474    -2.46402
O      0.79681    -1.07407    -1.92314
H      1.72342    -0.86199    -2.13488
O     -2.52175     0.77073     0.39055
H     -1.87936     0.03713     0.45244
O     -1.76622     1.80977     1.02092
H     -1.08678     2.00626     0.34242
O     -1.06484    -0.48528     3.45140
H     -1.29699    -0.84957     2.58872
O     -0.45119     0.75640     3.11265
H     -1.07684     1.16548     2.47590
O     -0.73550    -1.12243     0.58207
H      0.20047    -1.02057     0.86343
O     -0.73416    -2.33188    -0.16763
H     -0.23926    -2.02682    -0.95286
