 36
-1364.9680541890057
O      1.09142     0.82616     1.56611
H      1.81339     0.17675     1.53147
O      0.91827     1.03948     0.16353
H     -0.00263     0.72165    -0.00307
O     -2.67471    -1.73657     1.21327
H     -2.76468    -0.76492     1.15528
O     -1.60346    -1.82802     2.15016
H     -1.92525    -2.49347     2.76585
O      0.62795    -2.10894     0.68658
H     -0.17227    -1.93176     1.21974
O      1.25414    -3.14628     1.44710
H      2.16826    -2.84738     1.39303
O      1.35327    -0.91626    -1.93834
H      0.82981    -1.37818    -1.26218
O      0.35767    -0.18177    -2.64776
H      0.57838     0.73483    -2.41294
O      0.78261     3.40763    -0.99165
H      1.01647     2.61321    -0.46175
O      0.71134     2.82914    -2.29669
H      1.46082     3.24740    -2.73027
O     -1.71446     3.33748     0.56528
H     -1.03467     3.58097    -0.08284
O     -1.02714     3.41650     1.81386
H     -0.60939     2.54667     1.88249
O     -2.12843    -1.47875    -1.92364
H     -1.36543    -1.31609    -2.49741
O     -1.66956    -2.62825    -1.19415
H     -2.06680    -2.45589    -0.32512
O     -1.62225     0.63846    -0.42497
H     -1.99844    -0.10064    -0.95751
O     -2.63151     0.86394     0.57423
H     -2.53667     1.83966     0.62562
O      3.99911    -1.88495     0.58945
H      4.92256    -1.65902     0.43770
O      3.34747    -0.63475     0.35246
H      2.86448    -0.80267    -0.47764
