 36
-1364.969822712319
O      2.77650     0.26212     2.34179
H      1.98732    -0.26529     2.57471
O      2.36805     1.58785     2.70017
H      1.65564     1.73980     2.05395
O      0.51589    -1.19307     2.22399
H     -0.38578    -1.10785     1.85654
O      1.06626    -2.31398     1.51060
H      1.68659    -1.88023     0.88201
O      0.95525    -0.43032    -2.49815
H     -0.00189    -0.58369    -2.55646
O      1.01862     1.00059    -2.37666
H      1.66377     1.08516    -1.65535
O      0.29847     1.65741     0.94890
H     -0.08996     0.88043     0.47692
O     -0.02296     2.75598     0.09705
H     -0.91541     2.97106     0.40058
O     -1.87005     1.46954    -2.13368
H     -0.90418     1.59370    -2.13293
O     -1.97151     0.14892    -2.67798
H     -2.32264     0.32609    -3.55830
O     -3.75880     1.82453     0.23007
H     -3.21045     1.47726    -0.49035
O     -2.78631     1.79698     1.28272
H     -3.22923     2.27993     1.98796
O      0.24633    -3.26337    -1.51771
H     -0.04898    -4.15125    -1.74221
O     -0.64095    -2.94024    -0.45244
H     -0.04141    -2.97580     0.32722
O      2.50192    -1.22484    -0.47325
H      1.97569    -1.22439    -1.29239
O      2.68011     0.19635    -0.32529
H      2.83582     0.27401     0.64600
O     -1.92249    -0.70818     1.16207
H     -2.25971     0.18846     1.35341
O     -1.14735    -0.36601     0.00546
H     -1.02703    -1.25165    -0.39044
