 36
-1364.9785403812648
O      3.44641     1.88569     0.23107
H      3.36019     1.10612     0.79293
O      2.50553     2.77490     0.83394
H      1.82671     2.85259     0.14334
O     -1.38502    -3.28146     2.20133
H     -1.57177    -3.80368     2.98644
O     -0.44395    -2.33708     2.70904
H      0.17497    -2.27733     1.95194
O     -2.38884    -1.13488     0.95446
H     -2.18968    -2.00108     1.36439
O     -2.98802    -1.50981    -0.29130
H     -3.27471    -0.63642    -0.59117
O     -0.45095    -1.14798    -1.50063
H     -1.34590    -1.52681    -1.50450
O      0.26675    -2.04295    -2.35231
H      1.08645    -1.53683    -2.45263
O     -2.92385     1.96765    -0.33630
H     -3.49173     2.62421    -0.75124
O     -2.66707     1.08575    -1.42424
H     -1.72792     1.28480    -1.61550
O     -0.06688     1.80532    -1.72622
H      0.80487     1.40175    -1.93169
O      0.24772     2.75739    -0.70937
H     -0.29803     2.42111     0.01807
O      1.04178    -1.72684     0.58442
H      0.47581    -1.46959    -0.18838
O      1.79850    -0.53781     0.85022
H      1.07721     0.11643     0.98838
O     -0.42553     0.70053     2.60288
H     -0.37801    -0.24628     2.80688
O     -0.49630     0.68365     1.19361
H     -1.28253     0.11419     1.01812
O      2.43184     0.87404    -2.01497
H      2.97985     1.35518    -1.36074
O      2.70928    -0.49073    -1.67119
H      2.45353    -0.53062    -0.72764
