 28
-1061.6362401601489
O     -1.92796    -1.31401    -1.42162
H     -2.23064    -0.41142    -1.21515
O     -0.51890    -1.13986    -1.21183
H     -0.11805    -1.48759    -2.03511
O     -0.24857     1.77693     2.93584
H     -0.98677     1.63155     2.32705
O      0.71296     0.85343     2.42702
H      1.40689     1.41959     2.06320
O      0.23843    -2.06973     1.52412
H     -0.16453    -2.13953     0.64856
O     -0.77713    -1.35419     2.23506
H      1.55637    -2.35982    -3.77516
O     -0.09255     2.58631    -0.10513
H      0.58986     1.88001    -0.15084
O      0.09182     3.22717    -1.36735
H      0.27182     4.12860    -1.08562
O     -2.43314     0.83837     1.08627
H     -2.07786    -0.06205     1.15689
O     -2.36870     1.09841    -0.31997
H     -1.62976     1.73396    -0.37258
O      1.84180    -2.54604    -1.93171
H      2.25221    -1.83431    -1.42000
O      1.33116    -1.79397    -3.03362
H     -0.25271    -0.61254     2.58625
O      2.32710    -0.63634     0.08177
H      1.83824    -1.06594     0.80302
O      1.40170     0.37277    -0.32015
H      0.62766    -0.17215    -0.58047
