 20
-758.3067279236974
O      0.59803    -1.89975    -0.05772
H      0.22740    -1.38883    -0.79460
O      1.94187    -1.40123    -0.01292
H      1.92331    -0.90132     0.81643
O     -0.50059    -1.10271     2.24256
H     -0.16620    -1.57301     1.45197
O      0.63516    -0.27507     2.52786
H      0.27447     0.61516     2.41568
O      1.19877     1.70635     0.30258
H      0.24642     1.49080     0.26481
O      1.53596     1.48976    -1.07306
H      2.46521     1.24525    -1.01297
O     -1.37729     0.44383    -2.49656
H     -1.76970    -0.18974    -3.10395
O     -0.21224    -0.26246    -2.08891
H      0.39825     0.47688    -1.90271
O     -2.34224     0.53963     1.04941
H     -1.80490    -0.13547     1.50116
O     -1.37476     1.08299     0.14481
H     -1.68376     0.77175    -0.72448
