 40
-1516.6416770680876
O      1.14637    -0.83278    -1.70656
H      0.77149    -1.55818    -2.24682
O      2.49294    -0.78589    -2.19112
H      2.82435    -0.09800    -1.60059
O     -2.58251    -0.82967    -0.57976
H     -2.21310    -1.53772    -1.13738
O     -3.01296     0.12594    -1.54820
H     -2.15568     0.52806    -1.80581
O      1.27898     2.21447     2.99939
H      1.25352     2.39246     3.94482
O      2.53437     1.55559     2.86092
H      2.24196     0.62253     2.72228
O     -0.58640     1.18919    -1.80225
H      0.07659     0.46513    -1.72578
O     -0.30652     1.98153    -0.63397
H     -1.20877     2.27448    -0.39471
O     -1.29394     0.91238     2.01957
H     -0.42940     1.32517     2.15028
O     -0.89436    -0.35757     1.50798
H     -1.50702    -0.49781     0.75486
O      2.13838     1.09267    -0.00753
H      1.31119     1.61007    -0.14092
O      3.14652     2.07711     0.17999
H      3.17225     2.08139     1.14923
O     -2.97629     2.53659    -0.04823
H     -3.36003     1.68512    -0.32657
O     -3.54808     3.44778    -0.98547
H     -4.10315     3.97927    -0.40704
O     -0.23545    -2.74826    -2.89198
H     -0.83854    -2.82644    -3.63574
O     -1.14616    -2.79913    -1.79684
H     -0.52417    -3.04214    -1.06519
O      1.56143    -0.85575     2.32942
H      0.61071    -0.81524     2.07734
O      2.15263    -1.26785     1.09328
H      2.15801    -0.40947     0.61223
O     -0.32661    -3.34223     1.27852
H     -0.01023    -4.16775     1.65887
O      0.56390    -3.21213     0.16972
H      1.18844    -2.50540     0.47505
