 24
-909.9814609623829
O     -2.03446     0.97358     0.14402
H     -2.58480     0.44481    -0.47393
O     -1.28115     1.74789    -0.80070
H     -0.57513     2.05190    -0.20169
O     -0.31695    -1.43114    -1.33043
H      0.43442    -1.56500    -0.72215
O      0.11540    -0.24519    -2.01061
H     -0.49090     0.42484    -1.64051
O      1.96155    -1.11719    -0.02559
H      2.29688    -1.02466     0.89277
O      2.24212     0.19973    -0.52219
H      1.67418     0.17502    -1.31371
O     -2.98008    -1.63315    -1.89453
H     -2.02815    -1.52948    -1.71157
O     -3.43382    -0.29293    -1.69349
H     -3.60765     0.01178    -2.58984
O      2.96191    -0.65698     2.36828
H      3.61127     0.01566     2.59742
O      1.94154    -0.46323     3.35017
H      1.24820    -0.04309     2.80862
O     -0.06724     0.65642     1.88003
H     -0.92332     0.58065     1.41737
O      0.57582     1.64439     1.06374
H      1.24818     1.10875     0.60043
