 36
-1364.9728836717636
O      1.94750    -0.60937    -2.79264
H      2.23780     0.31553    -2.72306
O      1.88678    -0.94641    -1.40752
H      1.02225    -0.56380    -1.14368
O      0.74377    -3.50360    -0.68809
H      1.31045    -2.89655    -1.19251
O     -0.41509    -3.57263    -1.50939
H     -0.44010    -4.51318    -1.70618
O     -1.52223     1.23456     1.95061
H     -2.39657     1.38637     2.32823
O     -0.88670     0.41379     2.94749
H      0.04360     0.67230     2.77570
O     -0.03131     2.85786    -1.64261
H     -0.11784     3.67122    -2.15066
O     -0.72274     3.18461    -0.44164
H     -1.53070     2.65202    -0.53955
O     -4.28601     1.09841     0.32813
H     -4.98974     1.06844    -0.32788
O     -3.15262     1.40974    -0.47993
H     -2.65587     0.55769    -0.47180
O     -0.37760     0.15147    -0.54902
H     -0.34555     0.63439     0.29951
O     -1.53145    -0.68176    -0.40709
H     -1.32411    -1.25427     0.36716
O      2.93606     1.47629    -0.45787
H      3.09997     0.52904    -0.57896
O      2.47203     1.82258    -1.76131
H      1.57152     2.14047    -1.57498
O      0.45440    -2.38455     1.73976
H      0.47491    -2.83209     0.87072
O     -0.93407    -2.05767     1.84556
H     -0.90119    -1.28925     2.44595
O      1.36545     0.88195     1.68412
H      1.88131     1.28670     0.96270
O      2.12694    -0.29676     1.95871
H      1.47284    -1.00567     1.80688
