 36
-1364.974709156492
O      1.47926     1.69058    -0.13610
H      1.02190     1.77943    -1.00122
O      2.42970     0.68143    -0.50382
H      2.71997     0.37569     0.37630
O     -2.33235    -0.82540    -1.29527
H     -1.45684    -1.22413    -1.15500
O     -2.08142     0.56635    -1.10712
H     -1.59852     0.60515    -0.25117
O      1.86577    -0.09889     2.81142
H      2.20057    -0.50416     3.61604
O      2.66977    -0.72095     1.81251
H      2.05276    -1.39260     1.44587
O      3.48250     2.10054    -2.58308
H      3.25779     1.48456    -1.86820
O      2.97178     1.36351    -3.70021
H      3.49537     1.72517    -4.42086
O     -1.40617    -2.31748     1.66478
H     -2.29243    -1.91682     1.58600
O     -0.90735    -1.79406     2.89741
H     -0.56790    -0.92916     2.61890
O     -0.78561     0.63543     1.23038
H      0.03068     1.16815     1.15630
O     -1.64716     1.40816     2.08181
H     -2.49486     0.98650     1.86264
O      0.56137     1.65491    -2.60193
H      1.35615     1.56568    -3.16423
O     -0.14641     0.45076    -2.93328
H     -0.99701     0.60245    -2.47551
O     -3.78633    -1.16310     0.96855
H     -3.53543    -0.98883     0.04180
O     -3.99439     0.16046     1.44681
H     -4.79559     0.04449     1.96194
O      0.52036    -1.59678    -0.71457
H      1.26162    -1.00210    -0.91020
O      0.94975    -2.26009     0.48190
H      0.08420    -2.39471     0.93574
