 24
-909.9734405379058
O     -2.25099    -1.01173     0.09716
H     -2.52251    -1.90431     0.33252
O     -3.28980    -0.21829     0.68237
H     -3.13350     0.59207     0.16971
O      0.29763    -1.72273    -1.55778
H      1.08551    -1.71081    -0.98498
O      0.65543    -0.65365    -2.45336
H     -0.15703    -0.12433    -2.44161
O      2.41355    -0.84414    -0.21535
H      2.34304    -0.69564     0.74568
O      2.24362     0.49201    -0.71558
H      1.86032     0.26633    -1.58542
O     -2.13250     1.50149    -1.15500
H     -1.30509     1.60567    -0.63931
O     -1.73857     0.57733    -2.17064
H     -2.16883    -0.22705    -1.84705
O      1.90366    -0.45549     2.40552
H      1.04442     0.00266     2.31066
O      2.67032     0.51008     3.11718
H      2.91580     0.00268     3.89532
O      0.00637     1.47524     0.45359
H      0.85921     1.11839     0.11711
O     -0.39524     0.48263     1.41525
H     -0.95444    -0.11878     0.88893
