 32
-1213.3021515661187
O      0.90897    -2.15003     2.97594
H      1.00546    -3.07582     3.21793
O     -0.19374    -2.21791     2.07951
H      0.22693    -2.04495     1.21592
O     -3.36576     1.79451    -0.22448
H     -3.97105     1.88859    -0.96603
O     -2.21045     2.47724    -0.71926
H     -1.62939     2.40381     0.05844
O      2.59899    -0.29625    -3.01661
H      2.73316    -0.62524    -3.91033
O      1.92026    -1.38837    -2.39444
H      0.97936    -1.12294    -2.42726
O      0.63606     1.68969     1.98172
H      0.86431     0.90053     1.46611
O     -0.65453     2.00728     1.47985
H     -1.20945     1.32927     1.91919
O      1.07563     1.89172    -2.50527
H      1.72527     1.17682    -2.61116
O      0.75205     1.69321    -1.11904
H      0.80412     2.58885    -0.76143
O     -0.64720    -0.78049    -1.76327
H     -0.52594     0.05921    -1.28727
O     -0.70603    -1.72434    -0.69203
H     -1.53319    -1.45397    -0.24257
O      2.90007    -1.28508     1.27670
H      2.40801    -1.47495     2.08361
O      1.80743    -0.75329     0.50823
H      2.06922    -0.94734    -0.40649
O     -2.56229    -0.54342     0.77527
H     -2.85716     0.33755     0.45651
O     -1.97661    -0.21229     2.03750
H     -1.38230    -0.97414     2.17359
