 32
-1213.3074601495007
O      2.65958    -1.45509     1.90358
H      2.33290    -1.76193     1.03679
O      4.06056    -1.38845     1.65649
H      4.39308    -1.86141     2.42315
O     -2.43389    -0.80100    -1.72671
H     -2.15934     0.06548    -1.34529
O     -3.09908    -1.39966    -0.60571
H     -2.69260    -2.27619    -0.63946
O      1.97790     1.40890     0.72366
H      1.58091     0.72323     0.14553
O      1.52040     0.98988     2.01641
H      2.02076     0.15576     2.11944
O     -1.16172    -0.73505     1.46330
H     -2.00990    -0.72574     0.99263
O     -1.13462     0.60276     1.98387
H     -0.16911     0.76647     2.03095
O      0.45287     3.70697    -1.03067
H      0.66027     4.62646    -1.21420
O      0.54843     3.69274     0.40059
H      1.17759     2.95196     0.52800
O     -0.56355    -2.60644    -2.20930
H     -1.15809    -1.82522    -2.21943
O     -1.33542    -3.48421    -1.37772
H     -1.70379    -4.08505    -2.03252
O      0.70870    -0.62456    -0.42633
H      0.04437    -0.82156     0.27498
O      1.42879    -1.86007    -0.48497
H      0.97621    -2.27875    -1.23792
O     -1.64162     1.47012    -0.67125
H     -1.57010     1.75392     0.25509
O     -2.05784     2.65618    -1.35730
H     -1.19550     3.09786    -1.40188
