 32
-1213.3070350335984
O      3.22616     0.25679     0.83065
H      4.14600     0.41073     1.07042
O      2.70196     1.57738     0.78133
H      1.84140     1.44008     1.20918
O     -0.87113    -1.62293    -0.16532
H     -0.01803    -1.50434    -0.61566
O     -1.81747    -1.77330    -1.20624
H     -1.75135    -0.89482    -1.64008
O     -1.43766     0.72830    -2.02168
H     -0.47448     0.86729    -1.88045
O     -1.97676     1.61638    -1.03456
H     -2.76970     1.11350    -0.74573
O     -0.21637     1.71046     1.02233
H     -0.84459     1.77446     0.26985
O     -1.09217     1.58980     2.14694
H     -0.81688     0.72598     2.49689
O      1.14273     0.92805    -1.54107
H      1.70727     1.58247    -1.09825
O      1.89108     0.57252    -2.71197
H      2.25588    -0.27442    -2.41712
O      2.09556    -1.64231    -0.69979
H      2.51329    -0.99565    -0.09971
O      3.17732    -1.89002    -1.59580
H      2.86321    -2.68677    -2.03247
O     -0.36984    -1.06439     2.38931
H     -0.73364    -1.29875     1.51002
O      1.02508    -1.22418     2.14299
H      1.22512    -2.01953     2.64755
O     -3.78604     0.25183     1.48709
H     -3.04438     0.86514     1.59342
O     -3.78923     0.02253     0.07897
H     -3.34747    -0.83669    -0.00519
