 36
-1364.9789223167397
O      1.53145    -1.38876    -0.14442
H      0.58402    -1.53711    -0.37572
O      2.04752    -2.70966    -0.28504
H      1.66375    -3.12694     0.50818
O     -2.00428    -1.16198    -0.02085
H     -1.46357    -0.45307     0.39213
O     -0.99149    -2.06426    -0.47423
H     -1.05374    -2.77085     0.19331
O      1.84233    -0.87553     2.49880
H      1.75280    -1.04410     1.53846
O      0.47132    -0.88851     2.93189
H      0.16399     0.01258     2.73608
O      2.37046     0.18009    -2.19013
H      2.21406    -0.56583    -1.58650
O      1.08440     0.29359    -2.82986
H      1.05581     1.25431    -2.90890
O      0.95297     2.65455    -1.40895
H      0.17197     3.09737    -1.02516
O      1.49280     1.99240    -0.25221
H      2.20690     1.48118    -0.66372
O     -0.97943     1.80077     1.95485
H     -1.58222     2.32359     1.39982
O     -0.58775     0.84434     0.98520
H      0.22498     1.23904     0.58582
O     -1.59037     0.99032    -1.89306
H     -0.85012     0.43303    -2.19532
O     -2.75063     0.22212    -2.20398
H     -2.72776    -0.41299    -1.46624
O     -2.19588     2.91813    -0.20784
H     -2.00820     2.21307    -0.87317
O     -1.26617     3.92098    -0.60653
H     -1.80503     4.50986    -1.14324
O     -0.40361    -3.24512     2.00763
H     -0.15048    -2.36438     2.36617
O      0.86242    -3.90884     1.89949
H      1.25646    -3.76118     2.76685
