 20
-758.3054047284016
O     -0.27760    -1.45003     1.06570
H     -0.27807    -2.20034     1.66933
O     -1.67780    -1.28268     0.81072
H     -1.66738    -0.38936     0.39550
O      1.01219     2.10276    -0.34395
H      1.15552     1.98444     0.60573
O      1.97247     1.18976    -0.89055
H      1.40443     0.58713    -1.38558
O      0.41807     0.92944     2.20851
H      0.16795     0.08025     1.80333
O      1.54444     0.51744     2.99184
H      1.30840     0.89220     3.84527
O     -0.40250    -1.67611    -1.82151
H     -0.26998    -1.79695    -0.86901
O      0.93264    -1.39063    -2.23836
H      1.07581    -2.06253    -2.91198
O     -1.69749     0.76394    -1.84079
H     -1.32723    -0.12751    -1.91815
O     -1.44086     1.03649    -0.45906
H     -0.60102     1.53948    -0.51715
