 32
-1213.3130898850159
O      2.51148    -1.48875    -1.15187
H      1.71530    -1.70056    -1.68468
O      2.06785    -1.91234     0.14236
H      2.56866    -1.32348     0.74202
O     -0.50170    -1.35806     0.46339
H      0.44560    -1.59478     0.31102
O     -0.50860    -1.06968     1.86699
H     -1.35457    -0.59055     1.94396
O      0.21073    -1.70158    -2.46665
H     -0.74130    -1.81077    -2.32841
O      0.28569    -0.48584    -3.21707
H      0.61679     0.15299    -2.54765
O      2.77094     0.07074     1.80369
H      2.69076     0.78841     1.15714
O      1.66444     0.30680     2.67339
H      1.02763    -0.37727     2.39470
O     -1.97398     0.35102    -0.89206
H     -1.36690    -0.28005    -0.43687
O     -2.28958    -0.37451    -2.07271
H     -1.81589     0.15801    -2.72304
O      1.10091     1.27600    -1.40495
H      0.56815     1.35963    -0.58576
O      2.42724     1.16254    -0.88058
H      2.61089     0.23272    -1.11601
O     -0.11911     1.62585     0.93113
H      0.36205     1.63656     1.77648
O     -0.97112     2.76293     0.99254
H     -1.81996     2.34121     1.17877
O     -3.52441     1.05071     1.17038
H     -3.17282     0.79827     0.29159
O     -2.97721     0.01044     1.97919
H     -3.73172    -0.57015     2.12077
