 36
-1364.9803242290361
O      2.85688    -0.23365     0.85692
H      2.90045     0.69270     1.16159
O      3.01689    -0.02026    -0.55151
H      2.27632    -0.54724    -0.92237
O     -3.27178    -1.21152    -1.28039
H     -3.41225    -0.91537    -2.18471
O     -2.30209    -2.24984    -1.43154
H     -1.47289    -1.72082    -1.51765
O     -2.58199    -2.24138     1.91360
H     -3.11301    -2.72425     2.55744
O     -2.00208    -3.31306     1.16937
H     -2.38700    -3.16242     0.29073
O      0.99738    -1.49564    -1.50909
H      0.73747    -1.99436    -0.70250
O     -0.18102    -0.74816    -1.79374
H      0.12457     0.18621    -1.71802
O     -0.95578     0.21279     0.78266
H     -0.86543    -0.50046     1.43760
O     -2.35848     0.47390     0.69116
H     -2.62687    -0.15938    -0.00096
O      0.17410     2.55039     1.10591
H     -0.11497     1.62905     0.90188
O     -0.97077     3.32926     0.76896
H     -1.68703     2.67974     0.82144
O     -0.30409     2.75109    -1.84936
H     -0.40789     3.06928    -0.93900
O      0.73328     1.77599    -1.70821
H      1.51020     2.30431    -1.44010
O      2.82987     2.44170     0.83421
H      1.88345     2.65479     0.92893
O      3.04666     2.71898    -0.55586
H      3.48214     1.89245    -0.80756
O      0.82603    -1.77269     1.79299
H      1.60863    -1.30614     1.44023
O      0.62516    -2.76931     0.78670
H     -0.26841    -3.08312     1.01940
