 32
-1213.309067931376
O      4.14634    -0.14378     0.73230
H      4.89601     0.44238     0.85992
O      3.07858     0.79219     0.62913
H      2.52832     0.56656     1.41088
O     -1.60825    -1.49034    -0.33490
H     -2.50874    -1.12314    -0.40745
O     -1.21725    -1.56967    -1.71288
H     -1.13735    -0.63047    -1.95170
O     -0.91676     1.15539    -2.19369
H      0.05684     1.19706    -2.07032
O     -1.33171     1.79842    -0.98536
H     -2.29572     1.69952    -1.02102
O     -1.05013     1.42731     1.62711
H     -1.04223     1.40202     0.64976
O     -1.88799     0.32062     1.96600
H     -1.21183    -0.36641     2.14261
O      1.69392     1.03346    -1.72879
H      2.22207     0.87277    -0.92127
O      1.92293    -0.18082    -2.45256
H      1.92164     0.15003    -3.35495
O      1.18525    -1.46443    -0.04592
H      0.51027    -1.77157    -0.67876
O      2.23755    -2.42407    -0.16453
H      2.98142    -1.82328    -0.29278
O      1.21751     0.44991     2.54718
H      0.49315     1.07697     2.35923
O      0.48744    -0.77835     2.40347
H      0.78674    -1.08031     1.51691
O     -3.82288     0.97075     0.23177
H     -3.22560     0.71192     0.96663
O     -4.00600    -0.28267    -0.41482
H     -4.85353    -0.58172    -0.07300
