 16
-606.6364185819994
O     -2.09018    -0.54468     1.98904
H     -2.05430    -1.22861     2.66389
O     -0.92396    -0.86672     1.22319
H     -0.32392    -0.13221     1.48151
O      1.85063     1.20171     1.22322
H      1.64482     0.66850     0.42788
O      0.56734     1.25102     1.86073
H      0.24289     2.12294     1.61407
O      1.26335    -0.34048    -0.87740
H      0.44013    -0.19498    -1.38495
O      2.22588     0.33008    -1.69143
H      3.00461    -0.19409    -1.49055
O     -1.43330    -1.32132    -1.60008
H     -1.49914    -1.25430    -0.63725
O     -1.15009     0.05018    -1.89952
H     -1.57164     0.15403    -2.75739
