 40
-1516.6417357567195
O     -0.10310     4.13939     1.41406
H      0.74753     3.81880     1.75036
O     -0.46059     3.08034     0.52227
H     -0.04222     3.31825    -0.32168
O      3.08024    -1.12976    -0.14953
H      3.52872    -1.87290    -0.56733
O      3.56722    -1.14504     1.19126
H      2.75601    -1.38403     1.66136
O      1.07841    -1.07057    -2.24306
H      0.19866    -0.87851    -2.63734
O      0.74130    -2.07645    -1.28477
H      1.04338    -1.66096    -0.45634
O     -2.70166     1.13375     0.99081
H     -2.10343     1.89483     1.06023
O     -2.02261     0.38133     0.00273
H     -1.15023     0.20011     0.43187
O     -1.38380    -0.35960    -2.98086
H     -2.02635    -0.88254    -2.46009
O     -1.55707     0.98144    -2.50169
H     -1.82070     0.85341    -1.56100
O      1.44949     1.30277    -1.06057
H      1.53869     0.44945    -1.54590
O      0.85594     2.19475    -2.00665
H      0.01515     1.74610    -2.22852
O      2.45240     2.61096     1.02266
H      2.07364     2.20325     0.21206
O      2.49204     1.48042     1.90346
H      3.17001     0.91399     1.50131
O     -1.54228    -3.18933     1.76000
H     -1.69283    -3.22118     0.79404
O     -1.88569    -1.82650     2.01496
H     -2.58294    -1.89070     2.67665
O      0.20858     0.18126     1.38131
H      0.97832     0.74605     1.65598
O      0.65394    -1.16203     1.62836
H     -0.15699    -1.50859     2.04391
O     -1.71752    -3.01946    -0.92008
H     -0.85425    -2.64301    -1.19583
O     -2.65687    -2.01413    -1.29475
H     -2.76394    -1.51720    -0.46974
