 28
-1061.6480999677433
O     -0.72771    -1.96931    -1.68553
H     -1.57982    -1.76867    -1.24196
O     -0.39846    -3.25097    -1.15626
H     -0.40905    -3.78755    -1.95481
O     -0.08264    -1.09937     1.17431
H      0.19182    -0.19205     1.41322
O      1.17085    -1.77088     1.12282
H      0.99570    -2.39530     0.40798
O      0.73101     1.34818     1.83869
H      1.69238     1.27257     1.73040
O      0.45407     2.43739     0.94355
H      0.49734    -0.80022    -1.42541
O     -2.68089    -0.61932     0.88630
H     -1.76465    -0.94194     0.99257
O     -2.95729    -0.96998    -0.47581
H     -2.93835    -0.07528    -0.86823
O     -2.16694     1.95440     0.48940
H     -2.45673     1.13037     0.92646
O     -2.21398     1.52733    -0.87501
H     -1.27273     1.35096    -1.07754
O      0.33801     1.07124    -1.50961
H      0.75913     1.69297    -0.89703
O      1.15804    -0.08847    -1.31805
H     -0.52099     2.40256     0.91140
O      4.33017     0.44013     0.68349
H      4.96652     1.02876     0.26680
O      3.10038     1.06226     0.31425
H      2.68703     0.38154    -0.24182
