 32
-1213.3018356691357
O      3.18948     0.46886     0.54569
H      4.11915     0.49831     0.29019
O      3.18140     1.12349     1.81681
H      2.43658     1.72424     1.67828
O     -1.01498    -1.41381    -0.11802
H     -0.07868    -1.41746     0.20081
O     -0.82612    -1.77998    -1.49542
H     -0.92201    -0.91110    -1.91720
O     -1.48167     1.97196    -1.70626
H     -0.72706     1.90831    -2.30790
O     -2.11649     0.72353    -1.99053
H     -2.71263     0.64026    -1.22573
O      0.53004     1.39173     0.24493
H     -0.35040     1.48397    -0.16201
O      0.33551     1.78738     1.60881
H      0.18243     0.91699     2.01878
O      1.91733     0.31414    -2.21220
H      1.94017     0.60727    -1.28187
O      1.11186     1.33095    -2.80815
H      1.76802     1.86490    -3.26870
O      1.56207    -1.62742     0.46988
H      2.14087    -0.84215     0.57587
O      2.22145    -2.30047    -0.60470
H      1.52024    -2.29598    -1.27174
O     -1.49822    -1.09150     3.13324
H     -2.06652    -0.81493     2.40248
O     -0.21645    -0.67425     2.67335
H      0.23772    -1.51167     2.51255
O     -3.71176     0.39769     0.17048
H     -4.66580     0.35015     0.05183
O     -3.44796    -0.86219     0.79275
H     -2.65191    -1.14469     0.29734
