 20
-758.3038033041555
O      0.04106    -1.60669     2.65809
H     -0.73305    -1.31572     2.15849
O      0.99559    -0.63372     2.22443
H      1.40686    -1.07744     1.46160
O      1.87119    -1.52268    -0.22102
H      1.60260    -0.77967    -0.78938
O      3.27289    -1.58651    -0.48420
H      3.36108    -2.50654    -0.75065
O     -0.54906     1.20323     1.12344
H      0.14119     0.72782     1.63655
O     -1.39446     0.07387     0.82497
H     -2.06162     0.49473     0.25497
O      1.29077     0.79539    -1.58981
H      1.99258     1.45083    -1.51338
O      0.11234     1.58475    -1.43753
H     -0.06162     1.52581    -0.46980
O     -2.48870     0.36427    -1.94837
H     -1.63399     0.80142    -2.06975
O     -3.03530     1.22147    -0.94599
H     -3.97497     1.18225    -1.14626
