 16
-606.6318312036296
O     -2.77739    -0.50174     1.29586
H     -2.38675    -0.99319     0.55470
O     -1.63390    -0.48901     2.15783
H     -2.03537    -0.25014     2.99875
O      0.59428     0.33496    -0.16851
H      1.40929     0.21313     0.32960
O     -0.17778     1.20808     0.66569
H     -0.70485     0.56510     1.18397
O      2.18552     1.79527    -2.20171
H      1.43718     1.50406    -1.66174
O      3.18505     1.96242    -1.18435
H      3.30122     2.91836    -1.18634
O     -0.57635    -2.73899    -0.14941
H     -0.62716    -3.35186    -0.88903
O     -1.20067    -1.58371    -0.71179
H     -0.47316    -0.93685    -0.63476
