 20
-758.2991247875218
O     -2.62920    -1.54448     0.83908
H     -2.27007    -0.99513     0.12443
O     -1.77096    -1.17823     1.92300
H     -1.18536    -1.93892     2.00257
O      2.46890    -1.21869    -2.37402
H      1.57506    -1.10259    -2.02101
O      3.26219    -0.61466    -1.35339
H      3.49003     0.23885    -1.73773
O     -1.74728     2.16707     1.21519
H     -1.66992     1.86908     0.30090
O     -0.79572     1.33533     1.87399
H     -1.24597     0.46649     1.92628
O      1.19926     1.06168     0.19373
H      0.59448     1.35591     0.91396
O      1.64721    -0.18742     0.74428
H      2.32044    -0.41691     0.08052
O     -1.67640     0.06071    -1.17907
H     -2.03751     0.01941    -2.06904
O     -0.33555    -0.38730    -1.39586
H      0.18396     0.21708    -0.81253
