 16
-606.6416673742705
O     -1.86354    -0.02690     1.23279
H     -1.79672    -0.81109     0.67306
O     -1.37537     0.98556     0.34892
H     -0.51651     1.21509     0.75128
O      1.50502     1.57292    -0.18204
H      1.61786     0.60602    -0.26193
O      1.06708     1.63386     1.18051
H      1.48819     2.44022     1.49269
O      1.37936    -1.11102    -0.16651
H      0.59946    -1.33535    -0.70806
O      0.95193    -1.50922     1.14184
H      0.90743    -0.65245     1.58519
O     -0.73249    -0.10363    -2.01819
H     -1.05347     0.36636    -1.22416
O     -0.87587    -1.45274    -1.55911
H     -1.08135    -1.91773    -2.37653
