 36
-1364.9750284344104
O      1.95779     1.15499     2.24825
H      1.49533     0.49528     2.78159
O      1.54155     0.75315     0.94965
H      2.38239     0.56932     0.50108
O     -0.25658    -1.03561     2.31682
H     -0.87644    -0.41477     1.87978
O     -1.01242    -2.24557     2.36167
H     -0.57932    -2.71751     1.61816
O     -0.63172     3.79076    -0.50025
H     -0.45997     4.66575    -0.13715
O     -0.23397     2.95772     0.58558
H      0.60405     2.58102     0.25895
O     -2.50130     0.52525    -0.02581
H     -3.22115    -0.02820     0.31587
O     -1.79321     0.79588     1.18738
H     -1.31634     1.62249     0.96949
O      1.01257     3.08269    -2.54306
H      0.29721     3.49459    -2.04110
O      1.35569     2.06684    -1.61094
H      0.70129     1.37211    -1.82479
O     -3.38733    -1.94755     1.08699
H     -2.61954    -2.00834     1.69645
O     -2.89264    -2.68848    -0.03281
H     -3.23751    -3.57044     0.13890
O      2.52955    -1.13706    -1.81808
H      2.31144    -1.62568    -1.00046
O      3.28133    -0.03890    -1.28965
H      2.90405     0.70344    -1.78112
O      0.02469    -0.13457    -2.22406
H      0.83614    -0.67352    -2.28082
O     -0.86510    -1.01913    -1.54961
H     -1.46808    -0.40243    -1.08948
O      1.42866    -2.13550     0.40830
H      1.12039    -1.38517     0.94948
O      0.20533    -2.80281     0.10023
H     -0.22457    -2.19129    -0.53358
