 24
-909.9798781700318
O     -0.64873    -1.82074    -1.96153
H      0.29855    -1.71894    -1.74963
O     -1.05557    -2.76553    -0.97419
H     -1.62176    -2.21905    -0.40888
O     -1.19447    -0.19971     1.72267
H     -1.11249     0.77598     1.79101
O     -2.05632    -0.37403     0.59026
H     -1.65275     0.22411    -0.07582
O      1.79235    -1.04986    -1.10599
H      1.83265    -1.16166    -0.13781
O      1.68101     0.37097    -1.21028
H      2.24001     0.55328    -1.97383
O     -1.17498     0.83657    -2.39612
H     -1.11486    -0.13499    -2.31771
O     -0.80097     1.24386    -1.08536
H      0.15765     1.03680    -1.07246
O      1.81333     0.08144     2.16185
H      1.86437    -0.14147     3.09663
O      1.30589    -1.11340     1.57767
H      0.33613    -0.93002     1.58568
O     -0.52221     2.39005     1.45859
H     -0.90933     2.50143     0.57976
O      0.86493     2.33533     1.09857
H      1.14397     1.49145     1.49798
