 32
-1213.309914782245
O      1.63241    -3.52217     1.05526
H      0.80035    -3.09599     1.30638
O      1.88171    -2.94363    -0.23434
H      1.38644    -3.52714    -0.82925
O     -0.68615    -0.05332    -1.72808
H     -0.60605    -0.99058    -1.98876
O      0.37832     0.57048    -2.45468
H      1.14133     0.21948    -1.94672
O     -0.65583    -2.65858    -2.33248
H     -1.35481    -3.03130    -2.87811
O     -0.71166    -3.49712    -1.18145
H     -0.81672    -2.82146    -0.47997
O      0.35467     3.06180    -1.28653
H      0.36576     2.21229    -1.76911
O      1.33809     2.81657    -0.26035
H      1.10001     3.50635     0.37580
O      1.25061     0.22682     0.40575
H      1.27778     1.18965     0.19007
O      2.06376    -0.31515    -0.64669
H      2.02125    -1.27860    -0.45670
O     -1.80287     0.90928     1.56825
H     -1.16480     1.49311     2.01055
O     -2.03895     1.62612     0.35457
H     -1.62883     1.04055    -0.30361
O     -0.48897     3.08281     2.59526
H     -0.94389     3.55687     3.29906
O     -0.58938     3.99592     1.50246
H     -1.20289     3.52161     0.91867
O     -0.59919    -1.64111     0.70640
H      0.06737    -0.91164     0.71860
O     -1.07991    -1.63270     2.04738
H     -1.59372    -0.80836     2.01392
