 28
-1061.6349531629135
O      0.75437    -0.80486    -2.71608
H      0.73791    -0.35635    -3.56791
O      1.84456    -0.15694    -2.06091
H      1.36530     0.46249    -1.46290
O      0.21453    -0.74691     1.57688
H     -0.58176    -1.21939     1.86321
O      0.60740    -1.52784     0.44042
H      1.57852    -1.54730     0.55020
O     -0.73265     1.67725     1.96815
H     -0.17614     0.88866     1.78078
O     -0.72592     1.68723     3.39233
H     -0.00136     2.91016     0.38803
O     -1.67403    -0.92915    -1.52665
H     -0.75609    -0.92748    -1.85402
O     -2.04584     0.45309    -1.68930
H     -2.67202     0.53338    -0.94343
O     -2.98742     0.26369     0.80930
H     -2.36348     0.80986     1.30924
O     -2.56040    -1.06201     1.15471
H     -2.28222    -1.38135     0.28369
O      0.22778     1.43871    -0.69760
H     -0.65444     1.19031    -1.06738
O      0.14984     2.85785    -0.56607
H     -0.28168     2.52345     3.55609
O      3.43513    -2.00739    -0.70231
H      3.01490    -1.35580    -1.28420
O      3.27354    -1.32188     0.54280
H      3.89381    -1.79325     1.10574
