 36
-1364.9765796591128
O      3.12987     1.91358     0.65392
H      4.06046     1.72432     0.50012
O      2.83594     2.71899    -0.49400
H      1.88325     2.88462    -0.34475
O     -1.05376    -2.95567     2.17888
H     -1.21814    -3.68083     2.78755
O      0.13175    -2.38467     2.71877
H      0.70998    -2.41874     1.92280
O     -2.31170    -0.83525     1.15238
H     -2.02292    -1.72143     1.44021
O     -2.70092    -1.05990    -0.20768
H     -3.27509    -0.27956    -0.34179
O     -0.39099    -1.85388    -1.41624
H     -1.28254    -1.50451    -1.20440
O     -0.27247    -1.73337    -2.82733
H      0.41269    -1.05469    -2.88332
O     -3.84400     1.33709    -0.38442
H     -4.66384     1.83000    -0.48368
O     -3.22043     1.53231    -1.65569
H     -2.32487     1.74772    -1.35735
O     -0.41986     1.90836    -1.02296
H      0.35061     1.40254    -1.36549
O      0.19141     2.73649    -0.02877
H      0.13870     2.17414     0.76189
O      1.45477    -2.24512     0.43157
H      0.79807    -2.11640    -0.29274
O      2.23110    -1.04949     0.37570
H      1.75235    -0.47053     0.99692
O      0.02163     0.33632     3.06473
H      0.02349    -0.62842     3.17348
O     -0.00635     0.40289     1.64006
H     -0.91749     0.10763     1.41498
O      2.77645     0.87026    -2.48198
H      2.92275     1.66124    -1.93545
O      1.62721     0.34981    -1.82759
H      2.00680    -0.17000    -1.08871
