 28
-1061.6454354597467
O      1.44477    -2.36179    -1.34375
H      1.87393    -1.79302    -0.69164
O      0.42901    -2.97606    -0.53598
H     -0.30046    -3.04603    -1.16676
O      1.74665     0.14653     0.18456
H      0.95802    -0.19203     0.66583
O      2.79307    -0.17610     1.10168
H      2.90740     0.67813     1.53925
O     -1.64416    -0.73323     0.65658
H     -1.64082     0.22826     0.86619
O     -0.37503    -1.12825     1.19347
H     -2.90159    -1.59580    -2.94165
O      0.23647     1.02821    -2.34235
H      0.84201     0.68737    -1.66054
O     -1.02334     0.83005    -1.71519
H     -1.29728    -0.06193    -2.01790
O     -1.22512     1.80029     1.33720
H     -0.60731     1.80817     2.08581
O     -0.35837     2.34701     0.32494
H     -0.67698     1.85906    -0.46713
O     -2.27167    -2.39485    -1.35564
H     -2.17952    -1.75656    -0.62141
O     -2.06801    -1.52752    -2.46735
H     -0.15217    -1.90127     0.63026
O      0.93753     2.10843     2.92894
H      1.02980     2.81919     3.57254
O      1.95453     2.44436     1.97855
H      1.39896     2.59050     1.19610
