 32
-1213.3171378939091
O      1.47842    -0.02623     1.70206
H      1.80253    -0.68180     1.05343
O      1.66472     1.19965     0.98830
H      1.05328     1.79652     1.46859
O      1.94789    -1.87435    -0.26690
H      2.19526    -1.26880    -0.98435
O      0.64121    -2.25875    -0.71383
H      0.27887    -2.71860     0.07083
O      0.16740    -0.93316    -3.01083
H      0.20216    -1.58562    -2.28873
O     -1.21847    -0.59897    -3.05360
H     -1.27890     0.07340    -2.35134
O     -1.37487     1.12062    -0.96941
H     -1.20893     0.57370    -0.17097
O     -0.50478     2.23743    -0.77676
H      0.21803     2.01830    -1.40933
O      1.40821     1.28442    -2.36991
H      0.95892     0.52183    -2.80662
O      2.32357     0.58857    -1.51630
H      2.10000     0.96241    -0.64307
O     -2.00744     0.22715     2.31640
H     -1.92527     1.18000     2.14840
O     -1.17405    -0.27136     1.27565
H     -0.27483    -0.25725     1.67393
O     -1.71323    -3.04366     0.85160
H     -1.78864    -2.12770     1.15448
O     -0.45540    -3.37854     1.44566
H     -0.61308    -4.28137     1.73748
O      0.03761     2.87908     2.26235
H      0.08624     3.79410     2.55444
O     -1.26590     2.80189     1.69254
H     -1.03334     2.72286     0.74010
