 24
-909.9701042894546
O     -1.84983    -2.99955     0.24652
H     -2.48994    -3.66499    -0.02003
O     -2.69106    -1.86717     0.48055
H     -2.14694    -1.40288     1.13882
O     -0.14923    -1.33389    -0.97501
H     -0.71867    -2.02476    -0.57082
O      1.09712    -1.52745    -0.28255
H      1.72396    -1.28412    -0.99187
O      2.68962    -0.59297    -2.21008
H      3.53025    -0.85868    -2.59107
O      3.08896     0.48793    -1.36440
H      2.25917     0.98452    -1.35640
O     -0.39029     1.96864    -1.78497
H     -0.99173     2.46840    -1.21619
O      0.34714     1.24630    -0.79477
H      0.00204     0.32000    -0.86414
O     -1.05749    -0.31252     2.09731
H     -0.99535     0.64212     2.25941
O      0.22969    -0.77634     2.51631
H      0.62039    -1.01294     1.66329
O     -1.23671     3.25921     0.93385
H     -0.85113     4.11428     1.14844
O     -0.27914     2.37438     1.53643
H      0.10528     1.95757     0.73669
