 32
-1213.3098243422176
O      1.84425     0.30461     3.05882
H      2.51352     0.54746     2.40419
O      0.82158     1.26494     2.75663
H      0.05218     0.70809     2.56769
O     -0.13574    -0.60261    -2.72795
H     -0.13635    -1.48881    -2.31142
O      0.90890     0.04645    -1.98824
H      0.51620     0.92605    -1.82210
O     -2.90980     0.00878    -1.13702
H     -3.85134     0.20613    -1.19162
O     -2.36887     0.76583    -2.21454
H     -1.64584     0.16954    -2.51232
O     -0.33599     2.43270     0.10148
H      0.56129     2.12447     0.29892
O     -0.32214     2.34096    -1.32391
H     -1.23231     2.06190    -1.51787
O      2.49051     1.63293    -0.05206
H      2.99504     1.82600    -0.85206
O      3.10059     0.43938     0.42467
H      2.43764    -0.22654     0.18594
O     -0.21685    -2.87390    -1.21749
H      0.32853    -2.57989    -0.45475
O     -1.52476    -2.86788    -0.64137
H     -1.72329    -3.81088    -0.62236
O      0.94776    -1.51131     0.76941
H      0.15762    -0.93100     0.83852
O      1.02179    -2.05279     2.08312
H      1.37930    -1.28453     2.56966
O     -1.89992     0.94330     1.67981
H     -1.50866     1.69883     1.21172
O     -1.27940    -0.11363     0.95976
H     -1.86242    -0.21028     0.17776
