 20
-758.3102635003517
O     -0.92415    -1.34847     1.34384
H     -1.27483    -1.95134     2.00759
O     -1.49826    -0.10020     1.74937
H     -0.67812     0.41920     1.84704
O      2.26149    -0.57300     0.00526
H      3.17756    -0.71559    -0.25116
O      1.72634    -1.89866    -0.01549
H      1.11183    -1.81863    -0.77635
O      0.93785     1.03914     1.63907
H      1.40356     0.41925     1.04037
O      0.86998     2.20684     0.82168
H      0.42521     2.82305     1.41180
O     -0.35254     1.44933    -1.44689
H      0.10498     1.73886    -0.63676
O     -1.72375     1.56976    -1.05289
H     -1.98906     0.63861    -1.07881
O     -0.05196    -1.14010    -1.89283
H      0.02598    -0.16340    -1.91185
O     -1.34656    -1.26081    -1.28918
H     -1.12198    -1.33749    -0.34324
