 32
-1213.3129900371675
O      3.06997     0.40246    -1.60630
H      2.56108    -0.41090    -1.78169
O      2.18960     1.37446    -2.17973
H      1.67707     1.65753    -1.40240
O     -0.07231     0.37482     2.97867
H     -0.43715     0.85073     2.20465
O     -1.04926    -0.65780     3.13810
H     -0.62905    -1.38340     2.63990
O     -1.81963     0.87515    -1.66434
H     -1.14287     0.38045    -2.18024
O     -3.02284     0.19375    -1.99029
H     -3.54942     0.91391    -2.34827
O     -0.68733     1.50028     0.67005
H     -1.28709     1.28432    -0.06870
O      0.56712     1.54163    -0.03145
H      1.10366     0.90253     0.47449
O      2.19886    -0.10281     1.32719
H      1.80365     0.17150     2.17230
O      3.19985     0.88750     1.09656
H      3.37231     0.72991     0.15281
O      1.03567    -1.20368    -2.13818
H      0.48713    -1.34175    -1.34312
O      0.24666    -0.28571    -2.89609
H      0.90165     0.43273    -2.99497
O      0.19810    -2.26780     1.38178
H      1.06315    -1.83783     1.39841
O     -0.26821    -1.78183     0.12100
H     -1.17793    -1.46907     0.33229
O     -3.09841     0.00676     1.46909
H     -2.47329    -0.25986     2.17043
O     -2.74702    -0.92696     0.44192
H     -3.09093    -0.47845    -0.35040
