 36
-1364.973879357298
O      3.66849    -0.32078     0.61387
H      3.43088     0.24166     1.36744
O      3.32935     0.53632    -0.47890
H      4.19380     0.81060    -0.80670
O     -3.46998    -0.72907     0.17787
H     -4.38158    -0.90027    -0.07778
O     -2.76675    -1.50906    -0.78920
H     -2.17282    -0.84212    -1.17076
O     -1.08261    -3.49263     1.42638
H     -0.25504    -3.03269     1.63034
O     -1.05333    -3.42957    -0.00022
H     -1.77894    -2.80894    -0.19769
O      0.61649     0.24961    -1.73516
H      0.80191    -0.64842    -1.38065
O     -0.75613     0.14814    -2.13972
H     -0.88144     1.03949    -2.52140
O     -0.66445     0.05080     1.00860
H      0.24234    -0.28965     1.12252
O     -1.32489    -0.39562     2.19977
H     -2.08613    -0.83001     1.78691
O      0.90569     2.40714    -0.19537
H      0.89364     1.64670    -0.81899
O     -0.47270     2.53734     0.16796
H     -0.67250     1.62854     0.48424
O     -2.09030     2.81244    -1.97961
H     -1.47766     2.90709    -1.22474
O     -1.14414     2.64407    -3.03859
H     -1.61092     3.04025    -3.77808
O      1.63386     0.57291     2.52822
H      0.94898     0.82295     3.16168
O      2.18860     1.83613     2.14467
H      1.72711     2.04185     1.30319
O      1.44001    -1.99555     0.73413
H      2.34119    -1.63326     0.70501
O      1.15885    -2.16847    -0.66291
H      0.38411    -2.77218    -0.59171
