 16
-606.6361786090704
O     -1.57592     0.06043     1.03073
H     -0.83122     0.19015     1.63712
O     -1.73956     1.36397     0.46307
H     -1.03208     1.40130    -0.20362
O      1.67890    -0.99085     2.48817
H      2.50257    -0.55373     2.72104
O      1.23038    -0.14892     1.42371
H      1.09118    -0.80219     0.71361
O     -0.01719     1.84183    -1.58370
H     -0.42929     2.39326    -2.25531
O      0.42209     0.72256    -2.35911
H     -0.09671     0.00686    -1.95026
O     -0.70714    -1.36579    -1.02592
H     -1.12863    -0.96327    -0.23198
O      0.45754    -1.95530    -0.43381
H      0.88982    -2.32829    -1.20818
