 36
-1364.9760807506157
O     -2.56369     1.38694     0.81035
H     -2.44158     1.35195    -0.16655
O     -2.54318     0.00597     1.17071
H     -1.77928    -0.01297     1.76236
O     -1.03984    -3.32401    -0.21131
H     -0.48508    -3.54926     0.54751
O     -0.86704    -1.90918    -0.21095
H     -1.73430    -1.57306     0.06965
O      0.28572    -0.27029     1.83576
H      0.48759     0.21942     0.99442
O      0.89915     0.53496     2.82810
H      0.51465     1.39552     2.61339
O     -0.70029    -0.69520    -2.55150
H     -0.56452    -1.22493    -1.73357
O      0.62228    -0.44405    -3.03082
H      0.87794     0.33790    -2.50429
O     -1.29876     2.55521    -2.07260
H     -1.82030     3.02429    -2.73248
O     -2.14210     1.42674    -1.83374
H     -1.60741     0.68414    -2.20669
O     -0.25386     3.72469     0.74628
H      0.08379     4.51941     1.17038
O     -0.67858     2.95619     1.87184
H     -1.42255     2.45086     1.47603
O      1.67442     1.24240    -1.16209
H      2.11716     0.43533    -0.81043
O      0.70858     1.39705    -0.12534
H      0.53192     2.36023    -0.07726
O      2.84379    -1.73363    -1.50852
H      2.08761    -1.58343    -2.09575
O      2.37673    -1.12911    -0.30947
H      2.13145    -1.89032     0.26055
O      1.90976    -3.07583     1.48144
H      2.49945    -3.29500     2.20854
O      0.65317    -2.89269     2.13011
H      0.53825    -1.92128     2.04953
