 20
-758.3048898707085
O     -0.62452    -1.25896     0.72571
H     -1.57420    -1.13739     0.92389
O     -0.11116    -0.08739     1.39084
H      0.84889    -0.23071     1.25766
O      2.37811    -0.74933     0.74721
H      2.59242    -0.23663    -0.05464
O      2.37365    -2.09524     0.25797
H      1.44162    -2.31749     0.37764
O     -0.55045     0.09473    -1.60784
H     -0.58288    -0.46305    -0.80269
O     -1.86777     0.64605    -1.67927
H     -2.22116     0.18216    -2.44319
O      2.63860     0.91666    -1.35211
H      3.31285     1.58317    -1.51174
O      1.64878     1.67595    -0.65772
H      0.85145     1.33883    -1.08876
O     -2.78043     1.05302     1.69283
H     -1.83859     0.96338     1.89563
O     -2.95731    -0.02041     0.76750
H     -2.75132     0.40648    -0.08025
