 20
-758.3032903206768
O     -0.99937    -0.50879     1.95894
H     -0.63325    -0.72057     2.82543
O     -0.12400    -1.18747     1.05565
H      0.57658    -0.51669     0.88199
O      2.25609    -1.42269    -1.87036
H      2.54495    -1.67692    -2.75386
O      1.24055    -2.37398    -1.56472
H      0.43527    -1.85189    -1.72007
O     -0.89579     2.70371     2.49731
H     -1.53268     3.39902     2.31186
O     -0.83892     2.06020     1.22057
H     -1.10800     1.14923     1.45457
O      1.30992     0.84299    -0.85720
H      1.74862     0.02146    -1.15074
O      1.60602     0.79686     0.54025
H      1.06356     1.53539     0.85097
O     -1.03642    -0.52110    -1.82983
H     -0.61171     0.25757    -1.43651
O     -2.26636    -0.61821    -1.10650
H     -1.98200    -1.10340    -0.32217
