 16
-606.6420479500214
O     -2.02270     0.08297     1.07746
H     -1.85231    -0.65708     0.47897
O     -1.61639     1.19220     0.26339
H     -0.78213     1.45263     0.69092
O      1.57111     1.43590    -0.03451
H      1.68653     0.46840    -0.12173
O      0.89283     1.49173     1.22810
H      1.44593     2.10300     1.72446
O      1.39053    -1.28249    -0.07922
H      0.63993    -1.41894    -0.68287
O      0.81435    -1.64960     1.18244
H      0.73104    -0.78419     1.60554
O     -0.72283     0.09770    -2.06610
H     -1.13475     0.61523    -1.34524
O     -0.88316    -1.22784    -1.54255
H     -1.33987    -1.67324    -2.26287
