 36
-1364.978288685309
O      2.17588    -0.64276     2.10753
H      2.03138     0.29191     2.33288
O      1.19259    -0.78118     1.08078
H      1.71018    -0.54082     0.27584
O      1.33085    -3.87369    -0.12122
H      0.69389    -3.23117    -0.46139
O      2.51977    -3.09131    -0.02526
H      2.41777    -2.60553     0.80804
O      1.72686     2.71270     1.14399
H      2.07274     3.51649     1.54113
O      1.36146     1.94291     2.28014
H      0.38879     1.87690     2.15487
O     -1.20828     0.04961     1.93689
H     -0.33629    -0.22759     1.57179
O     -1.18735     1.46775     1.75700
H     -2.08991     1.64349     1.42229
O     -0.59745    -1.83884    -1.29333
H     -1.51313    -1.51122    -1.15903
O     -0.22438    -1.09802    -2.46449
H      0.73701    -1.29961    -2.48911
O     -3.43715     2.31615     0.57427
H     -3.78256     3.20630     0.69019
O     -3.21821     2.24962    -0.82753
H     -2.25374     2.13874    -0.86500
O      0.96563     1.71550    -1.28159
H      1.11588     2.10492    -0.40408
O     -0.38397     1.25752    -1.17065
H     -0.37802     0.41374    -1.68343
O      2.64697    -0.32056    -1.14073
H      2.05822     0.38651    -1.47552
O      2.38159    -1.40310    -2.04495
H      2.52623    -2.15388    -1.42225
O     -3.12521    -1.08508     0.41577
H     -2.39345    -0.69130     0.93421
O     -2.87889    -0.57837    -0.89708
H     -3.55047     0.11329    -0.99712
