 32
-1213.3083535984822
O      1.58830    -0.65961     0.63459
H      1.98602    -0.77216    -0.26107
O      1.87472     0.72168     0.88139
H      1.02588     1.06770     1.23744
O     -0.84672    -1.56685     0.29051
H      0.04276    -1.23413     0.53771
O     -0.57428    -2.09582    -1.00753
H     -0.65579    -1.28086    -1.54453
O     -0.59912     0.24350    -2.21271
H      0.13027     0.85248    -1.96445
O     -1.63321     1.14580    -2.59168
H     -2.21186     1.08335    -1.81810
O     -0.45463     1.87458     1.57282
H     -1.07859     1.61585     0.86269
O     -1.17848     1.37720     2.70620
H     -0.66348     0.56744     2.90088
O      1.43568     1.91813    -1.66537
H      1.94451     1.73363    -0.85867
O      2.43281     1.83038    -2.68097
H      2.41587     2.72703    -3.02747
O      2.34748    -0.95656    -1.85335
H      2.17821    -0.49349    -2.68589
O      2.12774    -2.32835    -2.17535
H      1.25445    -2.47126    -1.77853
O     -0.81076    -1.90907     3.34468
H     -1.38127    -1.78104     2.57361
O      0.15228    -0.87161     3.15975
H      0.90927    -1.32768     2.76761
O     -3.26765     0.35295     1.36691
H     -2.76049     0.78076     2.07809
O     -2.37751     0.59270     0.27399
H     -1.93521    -0.28178     0.19781
