 36
-1364.9729110499923
O      0.71621     1.93317     1.10970
H     -0.23128     1.73179     1.26947
O      0.77836     2.18129    -0.29081
H      1.46314     1.54567    -0.58983
O     -1.78765     1.56043     1.88371
H     -2.03204     2.03397     2.68503
O     -2.14764     0.22191     2.22721
H     -1.27508    -0.23252     2.11381
O      0.37080    -2.78880    -0.16954
H      1.10695    -2.39096    -0.65772
O     -0.64518    -2.89647    -1.16890
H     -1.26362    -2.20293    -0.84575
O      0.15767    -0.64160    -2.76208
H     -0.29491    -1.49541    -2.66717
O     -0.43084    -0.07971    -3.93993
H     -0.94423     0.63239    -3.53979
O      2.43749     0.30038    -1.30463
H      1.84432    -0.01783    -2.00356
O      2.52380    -0.87355    -0.50094
H      2.82683    -0.50861     0.35482
O      0.15320    -0.91774     1.73450
H      0.13337    -1.65609     1.07982
O      0.65019    -1.53899     2.92056
H      1.43145    -0.98626     3.05566
O     -1.70389     1.81647    -1.23329
H     -0.78517     2.07333    -0.99385
O     -1.77450     2.24142    -2.59291
H     -2.69393     2.51287    -2.63376
O      3.45800     0.15098     1.78727
H      4.16901     0.78238     1.93184
O      2.42673     0.61569     2.64636
H      1.83184     1.07456     2.01519
O     -1.94396    -0.74544    -0.45659
H     -1.92234     0.17550    -0.79535
O     -3.29583    -0.89654    -0.02915
H     -3.18731    -0.61654     0.89082
