 20
-758.3069455898012
O     -0.86980     0.40727    -2.13435
H     -1.70162     0.89091    -2.13900
O     -1.32048    -0.87315    -1.67652
H     -0.50345    -1.39675    -1.79800
O      1.13735     1.10848    -0.47858
H      0.45582     0.80391    -1.10579
O      1.51351    -0.10964     0.17307
H      0.74357    -0.25245     0.76916
O      0.11406     2.96488     1.21896
H      0.52970     2.23445     0.71926
O     -0.33010     2.29365     2.40081
H      0.23699     2.67591     3.07738
O      0.76498    -3.11218    -0.69125
H      1.28000    -3.83882    -1.05470
O      1.10368    -2.06308    -1.60442
H      1.51196    -1.40858    -0.99708
O     -0.65974    -0.25708     1.68257
H     -0.66508     0.65625     2.03184
O     -1.88585    -0.24705     0.93734
H     -1.61523    -0.65567     0.10036
