 40
-1516.6377208221961
O      2.91726     1.70276     1.79292
H      2.38873     0.92600     2.03153
O      2.10059     2.25662     0.76336
H      2.58621     1.98962    -0.04661
O     -1.33555     1.76334    -1.95233
H     -0.99760     1.10987    -2.59006
O     -0.18194     1.86693    -1.11593
H     -0.34923     2.67946    -0.61322
O     -0.33098     3.25961     1.31896
H      0.58106     2.90209     1.31097
O     -0.98608     2.31887     2.16940
H     -1.61149     1.89812     1.55078
O     -1.87389    -3.68258     2.35974
H     -2.70303    -4.11756     2.58406
O     -2.31381    -2.71678     1.40917
H     -1.98150    -3.09473     0.56511
O     -1.76529    -0.22968    -0.00890
H     -2.10727    -0.82410     0.68095
O     -2.46525     0.98407     0.27971
H     -2.32287     1.42473    -0.58101
O      0.82724    -1.80219     0.20790
H      0.46811    -1.62745     1.10217
O      1.26722    -0.49741    -0.14539
H      0.43231     0.00240    -0.25494
O      2.87644     0.38818    -2.04692
H      2.38516    -0.03530    -1.31249
O      3.54337     1.46183    -1.39008
H      4.43236     1.11264    -1.26256
O     -0.17466    -0.83337     2.47016
H     -0.44146    -1.29654     3.27301
O      0.58404     0.26475     2.97334
H     -0.00480     1.02472     2.77582
O      0.24656     0.13859    -3.41074
H      1.11705     0.53064    -3.25009
O      0.50058    -1.20524    -2.96900
H     -0.34803    -1.62571    -3.15689
O     -1.19191    -3.13342    -1.01889
H     -0.35007    -2.67382    -0.81890
O     -1.88071    -2.20722    -1.85930
H     -1.89538    -1.40448    -1.30752
