 24
-909.9823012718767
O     -0.88292     0.74761     2.14201
H     -0.56660     1.38454     1.47330
O      0.36084     0.07717     2.42388
H      0.26396    -0.69872     1.83909
O      0.37758    -0.64236    -1.68360
H      1.34050    -0.68588    -1.55685
O      0.18639     0.77737    -1.79531
H     -0.78507     0.79819    -1.88951
O      1.93975     1.69787     1.00294
H      1.62589     1.17509     1.76496
O      0.66885     2.09366     0.46914
H      0.64081     1.61344    -0.38272
O     -2.88384    -0.51640    -2.58414
H     -3.71680    -0.10912    -2.83934
O     -2.47650     0.34327    -1.52295
H     -2.47114    -0.27742    -0.76605
O     -0.62576    -1.58542     0.62824
H     -0.34824    -1.30214    -0.26527
O     -2.00216    -1.17548     0.67497
H     -1.93791    -0.52498     1.39888
O      2.50009    -1.37147     0.64827
H      3.36339    -1.73855     0.86758
O      2.82959    -0.46008    -0.40604
H      2.66495     0.39580     0.04010
