 24
-909.9799019100797
O     -2.07738    -2.62610    -0.07242
H     -2.18597    -3.41244     0.47064
O     -2.80041    -1.62997     0.64627
H     -2.07642    -1.13221     1.07071
O     -0.24159    -1.28395    -1.45429
H     -0.88742    -1.84556    -0.96901
O      0.94772    -1.46709    -0.68027
H      1.49836    -0.73818    -1.02934
O      3.43089     0.29456    -0.99594
H      3.82572     0.31110    -1.87152
O      2.15404     0.85756    -1.29516
H      2.00975     1.42895    -0.51127
O     -2.19648     1.12772    -0.71269
H     -2.70832     1.48956    -1.44242
O     -0.86938     1.27296    -1.21745
H     -0.61795     0.32907    -1.37323
O     -0.80848    -0.20064     1.88166
H     -0.83771     0.76379     1.75937
O      0.59847    -0.45430     1.79355
H      0.67316    -0.91212     0.93426
O      1.46910     1.95151     1.06985
H      1.41799     1.10352     1.55335
O      0.07315     2.28454     1.05473
H     -0.18508     2.04911     0.14176
