 24
-909.9802798766301
O     -2.49916    -2.18240     0.43246
H     -1.66968    -2.32975    -0.04931
O     -2.20845    -0.96614     1.11001
H     -2.18784    -0.32614     0.37550
O     -0.01370    -1.84967    -0.96007
H      0.38735    -1.47428    -0.14551
O      0.24502    -0.83156    -1.93256
H      1.10906    -0.45080    -1.66257
O      2.33718     0.63046    -1.03030
H      1.92991     1.41439    -0.61822
O      3.39088     0.31352    -0.12257
H      2.93849    -0.28670     0.48646
O     -1.82525     0.54603    -1.08425
H     -1.12916     0.03157    -1.56431
O     -1.45465     1.89427    -1.35764
H     -2.23823     2.21868    -1.80938
O      0.17347    -1.45500     2.20283
H     -0.75263    -1.36506     1.88179
O      0.88742    -0.72403     1.21212
H      0.60671     0.20259     1.36600
O      0.26976     1.87055     1.39147
H      0.43418     2.57037     2.03026
O      0.68463     2.46821     0.16505
H     -0.13214     2.36531    -0.35457
