 32
-1213.3058551605725
O      0.91101     2.45441     3.23348
H      0.45679     1.61414     3.08217
O      0.66516     3.11097     1.98277
H      1.43444     2.82355     1.44524
O     -1.95037    -1.47463     0.75370
H     -2.26455    -1.66421    -0.15283
O     -0.82740    -2.34172     0.89959
H     -0.27130    -2.12219     0.12675
O     -2.81559    -1.58677    -1.81555
H     -2.74106    -0.63505    -2.01106
O     -1.94111    -2.13285    -2.80058
H     -2.43591    -2.91476    -3.06156
O      1.83243    -1.15831     1.88975
H      1.98162    -2.00720     2.32229
O      2.95030    -1.05073     1.00464
H      2.56499    -1.30490     0.15306
O      1.42385     1.38591    -0.37944
H      0.75127     1.00932     0.23866
O      2.47551     1.81547     0.49404
H      2.72300     0.99034     0.94137
O     -0.78919     0.83624    -2.25068
H     -0.52166     1.72581    -2.51955
O     -2.10442     1.03729    -1.70874
H     -1.91397     1.26809    -0.77605
O      0.55169    -1.84944    -1.36245
H     -0.07640    -1.78970    -2.10268
O      1.72131    -1.19705    -1.82150
H      1.55656    -0.27526    -1.56546
O     -1.30595     1.74259     0.81008
H     -0.76273     2.46111     1.20240
O     -0.49817     0.64436     1.26891
H     -1.09232    -0.14693     1.16605
