 20
-758.3008179012713
O     -1.26658    -0.69318     0.97436
H     -2.15158    -0.48845     1.31221
O     -0.81786     0.60458     0.54175
H      0.06272     0.62028     0.98783
O      2.38410     1.09316     0.71224
H      2.01114     1.00607    -0.18152
O      1.61042     0.16066     1.46435
H      1.80485    -0.68571     1.02120
O      0.43854    -1.81402    -0.75329
H     -0.18000    -1.53548    -0.05138
O      1.60298    -2.14075     0.01992
H      2.26008    -2.22667    -0.67592
O      2.48342     0.04550    -2.48946
H      2.38062     0.51402    -3.32303
O      1.32836     0.50336    -1.78411
H      0.88163    -0.34757    -1.61444
O     -3.43646     1.25018     1.38838
H     -2.66638     1.62513     0.94278
O     -4.21242     0.83590     0.25839
H     -4.97473     1.42020     0.32679
