 32
-1213.3112477528546
O      1.22925    -0.69270     0.71758
H      0.39122    -0.48772     1.18277
O      2.15355    -0.71687     1.79968
H      2.79344    -0.07737     1.46017
O     -0.75969    -1.77446    -1.45493
H     -0.53981    -0.87895    -1.79726
O      0.55580    -2.30853    -1.27458
H      0.84171    -1.83353    -0.46980
O     -3.72404    -1.50713    -0.44344
H     -3.85676    -2.13925    -1.15643
O     -2.68503    -2.11055     0.32738
H     -1.90455    -2.01596    -0.27157
O     -0.86373    -0.37066     2.32385
H     -0.59090     0.16684     3.07719
O     -2.28634    -0.25698     2.34802
H     -2.52172    -1.08169     1.89027
O      0.53630     0.43536    -2.09387
H      0.47518     1.06381    -1.34225
O      1.92564     0.08412    -2.08535
H      1.87008    -0.88434    -2.11523
O      4.64277     1.17919    -0.48082
H      4.84030     2.06739    -0.79371
O      3.27793     1.31613    -0.09770
H      2.81314     0.85163    -0.83013
O      0.18255     2.08062    -0.02792
H     -0.78131     2.11244     0.16446
O      0.78121     2.13420     1.26840
H      1.70810     2.08981     0.99926
O     -2.43309     1.60286     0.28700
H     -2.45646     0.99830     1.05234
O     -2.23298     0.72211    -0.82240
H     -2.90720     0.03020    -0.68752
