 40
-1516.642457292476
O      2.19857     3.11228     1.07646
H      2.20488     2.28937     0.56441
O      1.00076     2.99235     1.83348
H      1.27275     2.50683     2.63124
O      2.21718    -0.86132     0.01553
H      2.15247    -0.50928    -0.89914
O      1.55756     0.21484     0.69724
H      1.83157     0.08713     1.63619
O      0.01358     2.34407    -1.20628
H     -0.85600     2.43979    -1.63423
O      0.65481     3.59819    -1.47284
H      0.85095     3.87509    -0.56793
O     -1.25588     1.15315     1.68598
H     -0.70601     1.90442     1.40869
O     -1.47213     0.47649     0.46465
H     -0.67724    -0.08294     0.38801
O     -2.58759     0.10779    -1.94130
H     -2.19971     0.28624    -1.06055
O     -1.88301     0.99598    -2.80435
H     -1.08326     0.47355    -2.99952
O      0.40171    -0.43836    -2.86127
H      0.25779    -1.14731    -2.21529
O      1.42803     0.32208    -2.21571
H      0.94686     1.11585    -1.89624
O      0.85499     0.80099     3.73117
H      0.10370     0.52607     3.18073
O      1.88720    -0.10387     3.34498
H      1.47300    -0.97881     3.46337
O     -0.57463    -2.03449    -0.55893
H     -1.20655    -2.58642    -1.06957
O      0.47782    -2.94623    -0.25334
H      1.18689    -2.30863    -0.03920
O     -0.68996    -1.90578     2.39235
H     -0.62606    -2.31937     1.51603
O      0.45886    -2.44096     3.06303
H      0.04807    -2.96670     3.75613
O     -2.15151    -2.24143    -3.08947
H     -2.48270    -1.39873    -2.70898
O     -2.48248    -3.14851    -2.03830
H     -2.98065    -3.82532    -2.50511
