 24
-909.9686700377742
O     -2.05718     1.13840     0.95299
H     -2.18603     1.17681    -0.01624
O     -2.44546    -0.23247     1.15291
H     -1.71255    -0.56871     1.69863
O      1.45972    -1.09308    -2.18614
H      1.61417    -2.00896    -1.93714
O      0.23593    -0.82681    -1.49737
H      0.49229    -0.06216    -0.93772
O      3.32477     0.84750    -1.60343
H      2.74622     0.09614    -1.80705
O      3.51055     0.63772    -0.20219
H      4.40185     0.97809    -0.07348
O     -3.59282    -0.40855    -1.47420
H     -3.58342    -0.58155    -0.52220
O     -2.46119     0.46098    -1.58426
H     -1.73074    -0.15647    -1.74696
O      0.67054    -1.33913     2.08631
H      0.77058    -0.38165     1.93280
O     -0.58843    -1.33077     2.77672
H     -0.64047    -2.24150     3.07815
O      0.94367     1.30110    -0.03838
H      1.91896     1.33690     0.00778
O      0.57584     1.27015     1.34858
H     -0.39712     1.38949     1.27815
