 32
-1213.3097479036737
O      2.12937    -0.50390     1.87067
H      2.17631     0.44011     1.63659
O      1.04270    -0.91377     1.03839
H      0.22768    -0.65670     1.52489
O     -0.81015    -2.61918    -2.08846
H      0.14491    -2.63453    -1.88181
O     -1.34540    -2.81177    -0.78296
H     -1.81290    -3.64617    -0.87927
O     -1.18213     0.01239    -2.81268
H     -1.17175    -0.95562    -2.69815
O     -2.42169     0.40381    -2.22178
H     -2.27766     0.20245    -1.28106
O     -1.79198     2.00590     2.69481
H     -2.27442     2.58519     3.28924
O     -0.56817     1.80611     3.40826
H      0.05973     2.12416     2.72748
O      0.18403     1.40829    -1.05828
H     -0.31982     1.06518    -1.83911
O      1.54881     1.29025    -1.48529
H      1.67812     0.32368    -1.48747
O      1.68391    -2.28054    -1.11129
H      1.48697    -1.82019    -0.25874
O      2.36591    -1.26224    -1.82861
H      3.28696    -1.44216    -1.61813
O      0.73570     2.58090     1.21656
H      0.24109     2.16384     0.48506
O      2.06147     2.08756     0.99676
H      2.06507     1.94270     0.03164
O     -1.46367    -0.46594     1.77085
H     -1.73839     0.42286     2.07612
O     -1.78294    -0.41636     0.38141
H     -1.58043    -1.33246     0.11830
