 36
-1364.970387438812
O      2.42322     1.25181     0.36202
H      2.66388     0.32143     0.20058
O      1.53816     1.13977     1.47756
H      0.83581     1.77488     1.24430
O      0.43897    -2.16131     1.33241
H     -0.50034    -2.09059     1.05610
O      0.52291    -1.18514     2.36869
H      0.95370    -0.42897     1.91942
O     -2.33321     0.37710     1.95043
H     -2.05624     1.31224     2.00299
O     -1.83295    -0.14902     3.17961
H     -0.98556    -0.54730     2.89522
O      1.47416     1.56466    -2.44779
H      1.69946     1.71183    -1.51364
O      2.47789     0.62053    -2.80986
H      2.96567     1.09237    -3.49242
O     -2.19245     1.22273    -0.92863
H     -2.19887     0.23788    -0.79455
O     -1.77362     1.34000    -2.28534
H     -2.62101     1.36432    -2.74194
O     -0.55645     2.70493     0.62487
H     -1.14522     2.20890     0.01110
O     -1.41441     2.88911     1.75101
H     -1.68778     3.80605     1.65472
O      0.12929    -1.97349    -1.94408
H      0.89682    -2.44763    -1.57852
O      0.33246    -0.72492    -1.26045
H      0.07111    -0.07117    -1.92881
O     -2.14764    -1.89359     0.66274
H     -2.39524    -1.07874     1.15780
O     -2.24335    -1.43920    -0.69603
H     -1.46808    -1.86062    -1.11222
O      2.36803    -2.48976    -0.48325
H      1.82033    -2.33807     0.31368
O      3.10003    -1.27348    -0.58349
H      2.86485    -0.98860    -1.47960
