 36
-1364.9784318238328
O      1.77270     1.52917    -0.02184
H      1.29654     1.67973    -0.86846
O      2.51541     0.35972    -0.38314
H      2.75740     0.02556     0.50108
O     -2.13029    -0.66929    -0.91540
H     -1.19519    -0.97742    -0.88734
O     -1.97743     0.73151    -1.15138
H     -1.58821     1.03867    -0.30440
O      1.53943    -0.28415     2.85722
H      1.72350    -0.70047     3.70448
O      2.37646    -1.01961     1.96854
H      1.72968    -1.60155     1.51911
O      3.67271     2.05702    -2.42083
H      3.56180     1.29778    -1.83657
O      3.12160     1.49816    -3.61416
H      3.73222     1.81969    -4.28339
O     -1.66022    -2.54491     1.43304
H     -2.57917    -2.24691     1.53568
O     -1.02452    -2.03284     2.60171
H     -1.00337    -1.07165     2.42334
O     -0.87536     1.45583     1.14989
H      0.07753     1.26099     1.16545
O     -1.37860     0.60219     2.17501
H     -2.33302     0.59629     1.95842
O      0.75347     1.81300    -2.43114
H      1.54090     1.77561    -3.01065
O     -0.04849     0.76948    -2.99870
H     -0.85280     0.82568    -2.44211
O     -4.05631    -0.99172     0.90273
H     -3.47040    -0.81228     0.13599
O     -3.96806     0.24611     1.60146
H     -4.78109     0.69401     1.34705
O      0.42266    -1.38498    -0.80118
H      1.18275    -0.76752    -0.78279
O      0.72225    -2.28530     0.27751
H     -0.17988    -2.47611     0.61795
