 36
-1364.9781976205436
O      1.43071     0.96102    -2.27288
H      0.58994     0.54375    -1.98272
O      1.35455     2.26599    -1.69374
H      1.78288     2.14357    -0.83203
O      1.81184    -2.43864    -0.37241
H      2.54208    -1.82969    -0.58261
O      1.02392    -1.58507     0.44805
H      0.45472    -1.14091    -0.22155
O     -2.85117     1.25673     1.11307
H     -2.40945     0.60395     1.68700
O     -2.97016     0.47883    -0.07620
H     -3.55991     1.02158    -0.61299
O     -0.71758    -1.73559     2.43621
H     -0.02269    -1.79841     1.75131
O     -1.15161    -0.39464     2.28115
H     -0.32251     0.12529     2.31653
O     -1.16237     2.67129    -0.84628
H     -0.24359     2.60023    -1.16626
O     -0.97431     3.08897     0.51621
H     -1.68995     2.56525     0.91967
O     -0.64504    -0.28859    -1.13520
H     -1.46353     0.02164    -0.67329
O     -1.18710    -1.05460    -2.21233
H     -1.25028    -1.91161    -1.74485
O      1.07214     0.97702     1.91109
H      1.55077     0.29928     1.40690
O      1.42500     2.17205     1.21860
H      0.54407     2.58877     1.07236
O      3.46776    -0.37166    -1.12926
H      2.84634     0.15034    -1.67803
O      3.65688     0.50858    -0.02198
H      4.60855     0.65741    -0.04633
O     -1.23561    -3.12917    -0.53299
H     -0.67878    -3.90371    -0.40339
O     -2.33171    -3.32723     0.35206
H     -2.07818    -2.75526     1.09507
