 20
-758.3052283685108
O     -1.40042    -1.87086     1.54933
H     -0.75919    -1.85111     0.80690
O     -2.53336    -1.22414     0.96211
H     -2.98298    -1.95187     0.52402
O      2.65266     1.82792    -1.54602
H      3.24430     1.96907    -2.29075
O      1.65829     0.99409    -2.15584
H      1.69764     0.21748    -1.56009
O      0.85053     0.32928     2.07831
H      1.39020     0.98882     2.52282
O     -0.46393     0.66256     2.53388
H     -0.80221    -0.22538     2.71206
O      0.15277    -1.56973    -0.65479
H     -0.39687    -0.87316    -1.06917
O      1.31549    -0.83717    -0.26855
H      1.02687    -0.37891     0.54539
O     -1.00984     1.62543    -1.09499
H     -0.18662     1.50013    -1.58591
O     -1.60011     0.33191    -1.22303
H     -1.97618     0.20551    -0.33914
