 32
-1213.3083997923525
O      0.34254    -2.45753    -1.99713
H      0.69370    -2.89838    -1.20900
O     -0.20431    -1.28583    -1.38575
H     -1.09242    -1.21539    -1.76999
O      0.12150    -0.13605     3.36869
H     -0.50319    -0.38388     2.65268
O      0.70668    -1.39360     3.68038
H      0.24373    -1.63732     4.48666
O     -2.33241     1.50566    -1.87954
H     -2.52453     0.93126    -1.12040
O     -1.85631     0.55526    -2.83430
H     -0.95874     0.89402    -3.01414
O      0.68695     1.49409    -2.96499
H      0.60788     2.24466    -2.35631
O      1.50065     0.61813    -2.17246
H      0.92048    -0.16431    -2.08294
O     -0.43119     2.45907     0.61992
H      0.49461     2.33124     0.89805
O     -0.30490     2.87920    -0.74144
H     -1.15515     2.56548    -1.10453
O      1.82213     1.35022     1.59336
H      1.47339     0.98718     2.42190
O      1.51531     0.26133     0.72715
H      1.69045     0.62286    -0.15994
O      0.46597    -2.82048     1.37159
H      0.66853    -2.43257     2.24112
O      1.59503    -2.43713     0.58335
H      1.57856    -1.46743     0.65726
O     -1.41745    -0.76011     1.32150
H     -0.90783    -1.27443     0.66881
O     -1.97335     0.28756     0.53258
H     -1.39579     1.04107     0.76701
