 16
-606.637110644817
O     -1.68853    -0.96863     1.72069
H     -1.01121    -1.61302     1.49684
O     -1.32665     0.12825     0.88851
H     -0.55117     0.50414     1.36416
O      1.96519     0.43949     1.62690
H      1.67137     0.26919     0.71190
O      0.80891     1.09220     2.16735
H      1.11860     1.99465     2.29230
O      1.10139    -0.33495    -0.83251
H      0.27394    -0.45857    -1.35282
O      1.72383     0.74133    -1.53342
H      2.57770     0.34479    -1.72181
O     -2.06070    -1.22847    -1.32967
H     -1.89335    -0.74863    -0.49353
O     -1.14680    -0.56976    -2.21238
H     -1.65357     0.18175    -2.53755
