 40
-1516.6357970330903
O      0.92617     2.53009    -1.86593
H      0.96734     2.07795    -0.98928
O     -0.45055     2.92005    -1.89583
H     -0.39858     3.86999    -1.75409
O      3.84665    -0.06254     1.19998
H      3.21720     0.69328     1.19021
O      3.59472    -0.58191     2.50720
H      4.47748    -0.54552     2.88917
O     -2.39220     0.86123     0.65286
H     -2.33084    -0.08267     0.40427
O     -2.65234     1.47510    -0.60569
H     -1.77065     1.78941    -0.86659
O      0.38719     0.77566     3.28031
H      0.09445    -0.15219     3.11609
O     -0.82891     1.51009     3.25248
H     -1.04647     1.49211     2.30860
O      0.78065     1.16922     0.40534
H      1.06922     0.24869     0.19103
O      1.80719     1.66073     1.28104
H      1.36590     1.44134     2.13879
O     -0.09136    -1.72656     2.58699
H     -0.75547    -2.04583     1.95725
O      1.11903    -1.95848     1.85339
H      1.79111    -1.57368     2.43095
O     -1.10107    -2.70702    -0.19446
H     -0.31501    -2.22075    -0.48661
O     -2.08558    -1.69349    -0.12865
H     -2.54313    -1.75605    -0.99105
O     -3.36584     0.02121    -2.73480
H     -3.18163     0.48416    -1.88957
O     -3.60625    -1.31187    -2.29256
H     -4.56235    -1.39144    -2.36048
O     -0.57793    -0.55006    -2.67182
H     -1.32769    -0.46278    -3.28338
O      0.51444     0.00913    -3.41200
H      0.55176     0.90295    -3.04745
O      1.42330    -1.04017    -0.83627
H      1.32446    -0.95998    -1.80087
O      2.63186    -1.78256    -0.67328
H      3.12144    -1.18558    -0.08965
