 32
-1213.3124971923053
O      0.02178     0.17473     3.39929
H     -0.94149     0.23224     3.29293
O      0.22763    -1.22970     3.51584
H      0.68886    -1.42939     2.68767
O     -0.58157    -1.31857     0.25680
H      0.09733    -0.68715    -0.05532
O     -0.63752    -2.31472    -0.75468
H      0.21162    -2.76581    -0.61093
O     -2.34539     0.17529    -1.46720
H     -2.08484    -0.71772    -1.19508
O     -1.52833     0.35664    -2.63658
H     -1.09271     1.20699    -2.44942
O      0.91416     1.00568     1.02806
H      0.72249     0.75570     1.95893
O      0.32444     2.30915     0.95274
H     -0.62793     2.08290     1.00438
O      1.10485     2.30417    -1.56458
H      0.93033     2.49185    -0.61172
O     -0.15343     2.64699    -2.14067
H      0.11014     3.31253    -2.77970
O      1.59165    -0.38408    -1.50096
H      1.57646     0.58581    -1.63352
O      1.22736    -0.90528    -2.77664
H      0.26965    -0.74806    -2.78851
O      2.08697    -2.59392    -0.08722
H      2.14620    -1.78471    -0.63035
O      2.08906    -2.02537     1.21970
H      2.91904    -2.35791     1.57773
O     -2.33004     0.13335     1.69732
H     -1.73939    -0.46386     1.19663
O     -2.19159     1.35670     0.97057
H     -2.43055     1.07603     0.06477
