 32
-1213.3161550338807
O      0.97366    -0.83715     1.27963
H      1.76997    -0.97525     0.73365
O      1.45793     0.03237     2.30062
H      0.74061    -0.10018     2.96449
O      0.44990    -0.69492    -3.65944
H      0.27988     0.15816    -3.22009
O      0.35923    -1.56777    -2.53043
H     -0.60177    -1.78200    -2.51494
O     -2.13788    -2.50768    -1.10531
H     -2.00208    -1.69761    -0.57957
O     -2.28686    -1.92263    -2.40435
H     -2.89117    -2.53870    -2.83015
O     -2.14410     0.36806     1.14141
H     -1.74286     1.25651     1.07216
O     -1.34189    -0.30683     0.17177
H     -0.50747    -0.49890     0.65709
O     -0.09739     1.37808    -2.02692
H     -0.62344     0.82892    -1.42380
O      1.01839     1.71260    -1.20276
H      1.66449     1.00809    -1.41178
O      2.59442    -0.44249    -1.71449
H      1.93692    -1.05111    -2.12078
O      2.93255    -1.13887    -0.52045
H      3.85413    -1.36445    -0.67356
O     -0.98832     1.32814     4.09362
H     -0.53091     1.88028     3.43481
O     -0.85961     0.02412     3.52418
H     -1.53551     0.03141     2.81861
O     -0.48464     2.39966     0.88293
H      0.12467     2.34625     0.11468
O      0.39528     2.52208     2.00494
H      0.94146     1.71853     1.92878
