 36
-1364.9764419962348
O      1.54267     1.96786     2.86063
H      1.73344     2.46102     3.66495
O      0.43222     2.71040     2.34814
H     -0.23511     1.99378     2.25333
O      1.12846    -1.93988     1.87293
H      0.97206    -2.08068     0.92834
O     -0.18562    -1.64692     2.33762
H     -0.66613    -2.48626     2.14455
O      2.88506     1.17251     0.17475
H      2.53190     2.07456     0.16199
O      1.69271     0.41510     0.33755
H      1.71516     0.13601     1.27024
O      0.94322     3.38881    -0.23015
H      0.70889     3.24277     0.70648
O     -0.03840     2.57318    -0.88322
H      0.49432     2.17704    -1.60283
O     -1.66740     0.63065    -2.64856
H     -2.44968     1.14890    -2.86244
O     -2.00976    -0.66254    -3.16360
H     -1.81226    -1.19501    -2.37006
O     -1.43431     0.66945     0.36168
H     -0.85590     1.38796     0.00233
O     -1.23786     0.72573     1.77130
H     -0.89548    -0.17631     1.96946
O      1.57758     1.09340    -2.46224
H      2.07395     0.71106    -1.72324
O      0.83540    -0.04900    -2.90949
H     -0.06490     0.32540    -3.00247
O      0.26364    -1.82927    -0.96531
H      0.50220    -1.16543    -1.64836
O     -1.14731    -1.64363    -0.82007
H     -1.21329    -0.80048    -0.31496
O     -1.32154    -3.92959     1.65910
H     -0.85021    -4.74289     1.45078
O     -2.18789    -3.76311     0.53272
H     -1.75105    -3.02854     0.06149
