 28
-1061.646382856701
O      0.74183     1.52058    -3.09552
H      1.26155     1.99274    -3.74999
O      1.57104     1.60369    -1.94363
H      0.95284     1.97350    -1.27304
O      0.41491    -0.56535     2.56913
H     -0.09374    -1.11341     1.92711
O      1.23404     0.22949     1.71228
H      1.51651    -0.40354     1.03318
O     -1.74338     0.98165     3.31007
H     -0.97586     0.39175     3.22189
O     -2.50932     0.61847     2.16218
H      0.43969     1.53075     0.92969
O     -0.38209    -1.70887    -2.10881
H      0.51368    -1.86524    -1.77615
O     -0.55936    -0.34207    -1.75179
H     -0.11140     0.14526    -2.47293
O     -2.19269    -1.93273     1.41326
H     -2.37162    -1.01817     1.73116
O     -0.97713    -1.73981     0.68116
H     -1.27160    -1.64610    -0.24047
O     -1.21964     1.54492     0.00261
H     -1.02233     0.76256    -0.54309
O      0.08467     2.09265     0.20722
H     -2.08683     1.14653     1.45733
O      2.19389    -0.83676    -0.85528
H      2.13024     0.02123    -1.31476
O      2.72858    -1.66380    -1.88166
H      3.45436    -2.08110    -1.40951
