 32
-1213.3116001786416
O     -0.83643    -2.95304     0.83683
H     -1.37474    -2.96834     0.01776
O     -1.52305    -1.90495     1.54024
H     -0.80509    -1.27829     1.72387
O      1.38541    -1.74953    -0.13283
H      0.75234    -2.37993     0.25986
O      0.64917    -1.41891    -1.31953
H      1.00873    -0.53416    -1.54099
O     -3.35710    -1.39923    -0.28666
H     -2.87373    -1.44989     0.55865
O     -2.46223    -2.18342    -1.09746
H     -1.98569    -1.46001    -1.54943
O     -1.74728     0.23601    -1.94276
H     -0.97002     0.82215    -2.03613
O     -2.62243     1.06649    -1.15698
H     -3.23339     0.37103    -0.85660
O      2.88760     2.43251     0.04215
H      3.16769     3.35476     0.06345
O      4.00081     1.73261     0.60018
H      3.54513     1.29134     1.33175
O      0.37848     1.91792    -1.76851
H      0.28246     2.13323    -0.81155
O      1.52490     1.06253    -1.77160
H      2.13660     1.55206    -1.19386
O     -1.21816     1.49038     1.14475
H     -1.70336     1.52882     0.29570
O     -0.00182     2.18207     0.82814
H      0.63728     1.63085     1.30464
O      0.90752    -0.62729     2.56266
H      1.49483    -1.30557     2.91021
O      1.76341     0.08741     1.67022
H      1.70623    -0.47844     0.85297
