 28
-1061.6510961381723
O     -0.77721     2.35731    -0.37438
H     -0.56176     2.13480     0.55636
O     -1.65232     1.26735    -0.68783
H     -1.08739     0.69972    -1.24951
O      0.69250     0.28482     1.60711
H      1.29749     0.75731     1.00136
O     -0.21504     1.31856     1.99798
H     -1.02295     0.81152     2.21460
O     -2.65817     0.30715     2.36628
H     -3.42342     0.81341     2.65705
O     -3.07147    -0.18365     1.09540
H      0.71953     0.36481    -2.31185
O      2.47402    -1.74892     0.19237
H      2.75987    -2.66768     0.17259
O      2.94923    -1.25324    -1.06506
H      2.14763    -1.38181    -1.61587
O     -0.66159    -1.57066     0.24332
H     -0.09238    -1.01425     0.82064
O     -1.29513    -2.45096     1.15874
H     -2.18194    -2.07077     1.15251
O      0.47612    -1.50597    -2.12311
H      0.03124    -1.76880    -1.29139
O     -0.07441    -0.19779    -2.29506
H     -2.56965     0.39471     0.48540
O      1.61516     1.77671    -1.51663
H      0.81366     2.20661    -1.16067
O      2.27550     1.41932    -0.29508
H      2.86840     0.71268    -0.59933
