 20
-758.3111164148555
O     -2.04923    -1.37251    -0.25204
H     -2.56714    -2.17339    -0.38488
O     -0.71339    -1.89005    -0.33487
H     -0.40170    -1.68285     0.56922
O      2.21679    -0.97397     0.43036
H      1.97416    -0.44272    -0.35841
O      2.34341     0.06477     1.40506
H      3.18665    -0.15915     1.80951
O     -0.41248     2.13793    -0.38311
H     -0.57755     1.67385     0.45656
O     -1.60795     1.81542    -1.11188
H     -1.24963     1.15689    -1.72961
O      0.13539    -0.03506    -2.14530
H     -0.07607    -0.74166    -1.50711
O      1.32414     0.54043    -1.58027
H      0.93418     1.33203    -1.15208
O     -0.18768    -0.60089     1.94823
H      0.71462    -0.23615     1.87056
O     -1.02534     0.54253     1.73350
H     -1.74487     0.11932     1.24419
