 28
-1061.6475428483554
O     -0.12003    -1.75639    -0.91841
H      0.73773    -1.74159    -0.44675
O      0.26571    -1.28152    -2.21690
H     -0.50231    -0.70800    -2.39718
O      0.46146    -0.17568     1.55656
H     -0.37143    -0.27647     2.04926
O      1.37691     0.23251     2.56998
H      2.16440    -0.18997     2.20473
O     -0.44525     1.62377    -0.15746
H      0.02905     1.03848     0.47925
O     -1.02779     2.61201     0.68083
H      1.60866    -0.17027    -2.02259
O     -2.53712    -0.73593    -0.75805
H     -1.77177    -1.33143    -0.63992
O     -1.97904     0.16496    -1.72487
H     -1.49919     0.79951    -1.15201
O     -2.78933     0.67231     1.46979
H     -2.85411     0.14791     0.63828
O     -2.10801    -0.26021     2.30334
H     -2.75107    -0.41585     3.00039
O      1.68906     1.71259    -2.13516
H      1.20052     2.03095    -1.36565
O      2.22307     0.48920    -1.64228
H     -1.78583     2.11382     1.02905
O      2.29997    -1.92995     0.16670
H      2.98459    -2.49386    -0.21225
O      3.02350    -0.77131     0.57432
H      2.79791    -0.15884    -0.15489
