 24
-909.9804792048334
O     -1.78412     0.81419    -0.18525
H     -1.51857    -0.02631     0.25052
O     -1.49699     0.55060    -1.56088
H     -2.32510     0.18868    -1.90012
O      0.04923    -1.40941    -3.18896
H      0.63231    -0.88781    -2.61443
O     -0.50556    -2.32587    -2.25028
H     -0.27884    -3.17580    -2.64292
O      1.62335     0.51470    -1.44186
H      1.18418     1.36348    -1.24936
O      2.04317     0.14948    -0.11847
H      1.41679    -0.57510     0.07834
O     -0.86261    -1.38083     1.02319
H     -0.47053    -1.09075     1.87230
O      0.27757    -1.81199     0.27267
H     -0.12505    -1.98434    -0.60209
O     -0.83106     0.89008     2.82859
H     -0.19524     1.44817     2.32993
O      0.03222    -0.17732     3.22944
H     -0.12557    -0.20644     4.17736
O      0.94910     2.12291     1.26223
H      1.55561     1.40749     0.98237
O      0.35368     2.43969    -0.00213
H     -0.48842     1.94405     0.02929
