 20
-758.3072675136693
O     -0.11365    -1.62701     0.73531
H      0.05734    -0.86647     1.32157
O     -1.50706    -1.84580     0.95249
H     -1.87915    -1.11293     0.43223
O      2.73050    -0.19643     0.30274
H      3.62258    -0.03182    -0.01778
O      2.03105     0.90169    -0.26544
H      1.45799     0.46179    -0.92618
O      0.10897     1.71657     1.45797
H      0.94273     1.61745     0.96531
O      0.16480     0.53667     2.25909
H     -0.33775     0.79757     3.03796
O      0.31464    -0.05943    -2.08730
H      0.35070     0.00212    -3.04732
O     -0.02448    -1.44252    -1.91015
H      0.04388    -1.53108    -0.92926
O     -2.14884     0.25159    -0.67423
H     -1.62813    -0.03161    -1.43784
O     -1.74259     1.62342    -0.56342
H     -1.12499     1.59148     0.18632
