 36
-1364.979955633557
O      0.44572     0.56032     2.18454
H      0.66450    -0.24674     1.66666
O      0.66937     1.58757     1.22136
H     -0.08319     1.45649     0.59339
O      0.74025    -1.68631     0.86578
H     -0.16365    -1.92215     0.56976
O      1.47943    -1.63812    -0.35197
H      2.09008    -0.89696    -0.16355
O     -1.82333    -2.17991     0.28592
H     -1.81464    -2.37776    -0.66520
O     -2.52239    -0.93138     0.29181
H     -2.60647    -0.73087     1.25050
O      2.75651     0.66512    -0.12102
H      2.13025     1.17595     0.43897
O      2.22753     0.93077    -1.41882
H      2.70571     0.26801    -1.96020
O     -0.79139    -2.12534    -3.74037
H      0.13896    -2.30351    -3.92359
O     -0.79512    -2.05282    -2.32301
H     -0.70342    -1.08638    -2.18290
O     -0.83364     3.70977     2.31566
H     -0.11997     3.08524     2.12778
O     -1.30663     3.15707     3.54068
H     -1.66362     3.93256     3.98112
O     -0.41091     0.51856    -1.76902
H      0.52417     0.75289    -1.60721
O     -1.08259     1.13025    -0.66242
H     -1.72079     0.42808    -0.41060
O      3.24672    -1.09873    -2.80660
H      4.02982    -1.64715    -2.68946
O      2.19154    -2.04970    -2.92630
H      1.81547    -2.02819    -2.02428
O     -2.48549     1.29154     2.03695
H     -2.16619     1.98729     2.64321
O     -2.15653     0.08415     2.73491
H     -1.18479     0.15795     2.76017
