 40
-1516.6488413441225
O      1.69950     1.55041     0.19097
H      2.46419     1.54830    -0.43234
O      2.27961     2.10652     1.37459
H      1.51315     2.01622     1.96924
O      0.53065     0.54577    -2.43748
H      0.11620     1.37131    -2.13836
O      1.17430     0.89825    -3.65882
H      2.09581     0.92180    -3.36372
O     -3.01882    -0.05557     2.70026
H     -3.00081    -1.02723     2.59486
O     -3.54421     0.29665     1.41133
H     -2.80677     0.79716     1.02690
O     -0.34936     0.38564     3.01978
H     -1.31943     0.33825     3.11716
O     -0.13747     1.74658     2.62630
H     -0.63947     1.76216     1.78882
O     -1.23360     1.24104     0.31842
H     -1.15573     0.46041    -0.28946
O     -0.67374     2.31653    -0.41787
H      0.27236     2.19960    -0.15669
O      3.76335     0.35181    -2.26580
H      3.39501    -0.31331    -1.63973
O      3.80262     1.49931    -1.41277
H      4.71597     1.51714    -1.10834
O      1.54585    -1.94249    -1.13194
H      1.19416    -1.22603    -1.68439
O      2.62787    -1.27504    -0.48115
H      2.25180    -1.13878     0.41330
O      0.97694    -1.46282     1.57118
H      0.49829    -0.78995     2.09685
O     -0.08388    -2.21624     0.97494
H      0.29171    -2.33984     0.08250
O     -2.70906    -2.39382     1.53369
H     -1.75514    -2.37779     1.32658
O     -3.29370    -2.09204     0.26433
H     -3.71753    -1.24062     0.48088
O     -1.43990    -0.90664    -1.26961
H     -2.07126    -1.55805    -0.90100
O     -2.11047    -0.48120    -2.45998
H     -1.33233    -0.40292    -3.02575
