 28
-1061.6390900683637
O     -0.95474    -0.89367    -2.15091
H     -1.08076     0.05727    -1.96613
O     -0.11009    -0.83562    -3.29656
H     -0.65753    -1.29764    -3.93763
O      1.97442    -0.26276     2.24575
H      1.01378    -0.43161     2.29135
O      2.51895    -1.58217     2.25495
H      2.65527    -1.74563     3.19476
O     -0.80480     0.08113     1.24811
H     -1.77181     0.18873     1.22046
O     -0.62418    -1.11998     2.00089
H     -0.09596    -1.79936    -0.95447
O     -0.63799     2.53215    -0.38956
H     -0.26919     1.88189     0.23000
O     -0.57415     1.80777    -1.61465
H      0.38216     1.57481    -1.66493
O     -3.15594     1.24960     0.04020
H     -2.56350     1.97189    -0.21330
O     -3.27154     1.49739     1.44580
H     -4.20459     1.30987     1.57924
O      1.67174    -1.81295    -0.26922
H      1.95606    -1.91734     0.65828
O      0.31728    -2.27679    -0.20476
H     -0.38597    -1.72734     1.27116
O      2.60659     1.34781    -0.31931
H      2.45347     0.84699     0.49183
O      1.77903     0.67095    -1.25601
H      1.76454    -0.26387    -0.94796
