 36
-1364.9795668259633
O     -1.12300     0.58471     0.06793
H     -1.98539     0.18028     0.31613
O     -1.35737     1.97580     0.23458
H     -0.79877     2.31479    -0.48370
O     -0.80009    -1.60787     1.98445
H     -0.35197    -0.81008     2.32530
O      0.23038    -2.28518     1.25108
H      0.77567    -1.54516     0.89772
O      1.74305    -0.29889     0.47267
H      1.79081     0.63598     0.16847
O      2.57003    -0.96012    -0.47595
H      1.90692    -1.15805    -1.16990
O      0.56237    -1.22017    -2.20176
H     -0.13995    -1.88948    -2.00855
O     -0.20734    -0.02590    -2.32990
H     -0.54390     0.11403    -1.41815
O      1.26664     2.13277    -2.61554
H      0.88367     1.22275    -2.61746
O      0.15544     2.89217    -2.12531
H     -0.39341     3.00244    -2.90963
O      2.12230     2.27887     0.05869
H      2.32496     2.72391    -0.77827
O      1.50455     3.31962     0.82181
H      1.83393     3.09691     1.70061
O     -3.08666    -2.08229     0.69280
H     -2.31392    -2.02145     1.29400
O     -3.39349    -0.69722     0.55585
H     -4.20167    -0.60708     1.06922
O      0.20512     0.84907     2.64347
H     -0.07643     1.31487     1.83873
O      1.51391     1.36611     2.89121
H      2.05808     0.73390     2.39692
O     -1.44171    -2.73426    -1.44419
H     -2.19027    -2.61999    -0.83100
O     -0.67066    -3.76497    -0.82342
H     -0.27944    -3.29065    -0.06373
