 24
-909.9733240426248
O     -0.52266    -2.01851    -1.90051
H      0.44436    -1.97891    -1.93264
O     -0.73406    -2.95995    -0.83979
H     -1.21982    -2.41530    -0.20402
O     -1.30578    -0.46515     2.04163
H     -1.39769     0.49378     2.15380
O     -1.82444    -0.68877     0.72864
H     -1.35457    -0.01365     0.19608
O      2.23127    -1.73798    -1.10407
H      1.98291    -1.75305    -0.16566
O      1.82727    -0.39807    -1.41697
H      2.36034    -0.20155    -2.19382
O     -0.77718     0.89819    -2.17644
H     -0.91906    -0.05865    -2.12042
O     -0.85899     1.21404    -0.78550
H     -1.29259     2.07696    -0.77139
O      1.47154     0.70466     0.99747
H      1.52549     0.53394     0.04127
O      1.32459    -0.63999     1.48102
H      0.37636    -0.66312     1.73175
O     -0.58114     3.37302     1.10010
H     -0.37301     4.12430     1.66647
O     -0.42719     2.28061     2.00781
H      0.36311     1.83067     1.63655
