 36
-1364.976296726252
O      2.21563    -0.17267    -3.81968
H      3.05421     0.00339    -4.25695
O      2.26846     0.74171    -2.72771
H      2.37780     0.14709    -1.93893
O     -2.12869    -1.29267    -0.09487
H     -2.11206    -0.81214    -0.94588
O     -2.68551    -0.32268     0.80082
H     -2.56114    -0.76508     1.67108
O     -1.46649    -0.09290    -2.45219
H     -1.16832     0.83143    -2.42025
O     -0.23046    -0.76783    -2.19614
H      0.04200    -1.08626    -3.07184
O      0.14124     2.37745    -2.78870
H      0.96680     1.84229    -2.79341
O      0.52728     3.48030    -1.97433
H      0.10883     4.20504    -2.44560
O      2.31491    -0.59341    -0.45005
H      1.59448    -1.20269    -0.15831
O      2.08544     0.57636     0.32808
H      1.22218     0.88952    -0.00643
O     -0.29615     1.59592    -0.16968
H     -0.31952     2.46835    -0.60486
O     -1.05252     1.80149     1.02450
H     -1.74645     1.12121     0.89040
O     -2.01623    -1.13329     3.25126
H     -1.21092    -0.72490     3.60667
O     -1.81023    -2.53282     3.44746
H     -1.06757    -2.69246     2.83739
O      0.25473     0.76060     3.22356
H     -0.11318     1.13426     2.40233
O      1.24693    -0.15977     2.77057
H      1.71395     0.30185     2.04423
O      0.36427    -2.48704     1.79918
H      0.74901    -1.66938     2.17086
O      0.34387    -2.14648     0.41609
H     -0.59405    -1.89472     0.26470
