 40
-1516.6340486483934
O      1.64848     1.79571    -2.75871
H      2.21056     2.29333    -3.35839
O      2.55748     0.88758    -2.14470
H      2.26982     0.96013    -1.20827
O     -1.84079    -1.73944     0.87788
H     -1.18679    -2.36807     1.21617
O     -0.95532    -0.80718     0.26421
H     -1.23018     0.04986     0.66568
O     -1.61444     1.48728     1.41258
H     -1.92558     2.41230     1.28576
O     -0.29516     1.66710     1.92842
H     -0.28529     1.00387     2.63576
O      1.75294     0.86582     0.38240
H      0.94176     1.18119     0.84027
O      1.89310    -0.45857     0.89674
H      1.71475    -1.00337     0.09979
O     -2.61163     3.92508     0.88458
H     -3.27685     4.49872     1.27575
O     -3.32924     3.36544    -0.22164
H     -2.59438     3.21713    -0.84976
O     -0.24216     2.51650    -0.97824
H      0.50507     2.49596    -1.59380
O     -1.34315     2.59472    -1.89514
H     -1.49097     1.64069    -2.07313
O      0.01602    -0.36768    -2.90982
H      0.48388     0.48560    -2.91594
O     -1.22234    -0.03714    -2.26865
H     -1.12339    -0.43095    -1.37279
O      1.50962    -1.92251    -1.34206
H      0.93385    -1.48239    -2.01139
O      0.97813    -3.23637    -1.31707
H      1.72470    -3.74745    -1.63895
O      1.57970    -4.23015     1.73298
H      1.76709    -3.50202     2.34378
O      0.28212    -3.84302     1.26515
H      0.46055    -3.63302     0.33133
O      0.38393    -0.94542     3.02593
H      0.99324    -0.88473     2.25916
O      0.89534    -2.09519     3.69926
H      0.09972    -2.63352     3.75231
