 24
-909.9738927747916
O     -1.76921    -1.66274     0.10137
H     -1.08085    -1.44965     0.76128
O     -1.85149    -0.43050    -0.62751
H     -1.11876    -0.52944    -1.27175
O      2.40775    -2.01545     0.20670
H      2.20598    -1.20328    -0.29860
O      1.78360    -2.98762    -0.64742
H      2.54504    -3.49696    -0.94100
O      0.33444    -0.83850    -2.12195
H      0.53056    -1.73585    -1.81500
O      1.31061    -0.09718    -1.36754
H      0.82429     0.73238    -1.17677
O      0.89657     2.76330    -0.23341
H      1.40290     3.24987    -0.88815
O     -0.07552     2.15292    -1.07905
H     -0.88194     2.25783    -0.54094
O      0.19480    -1.08543     1.87320
H      0.95449    -1.60709     1.57660
O      0.65794     0.24234     1.57483
H     -0.15566     0.75743     1.72527
O     -1.56964     1.72339     1.93872
H     -1.57075     2.63959     2.23416
O     -2.16317     1.85252     0.64550
H     -2.18769     0.91246     0.35968
