 36
-1364.9735541627422
O      2.61903     0.22254     1.46553
H      2.11825     1.02397     1.69100
O      1.73054    -0.36640     0.53292
H      1.97060    -0.02017    -0.34906
O     -2.05314     2.07037     0.40872
H     -2.50271     1.33545    -0.07068
O     -2.01580     1.60402     1.76821
H     -1.69946     0.68146     1.65112
O     -2.51486    -0.27313    -2.08064
H     -1.68289     0.24457    -2.10006
O     -2.91796    -0.17121    -0.71854
H     -2.29191    -0.75754    -0.26862
O      0.33677     3.13913     0.85388
H     -0.57043     2.85730     0.59723
O      0.57810     2.36745     2.03848
H     -0.32768     2.16629     2.32947
O     -1.55240    -2.80267    -2.31466
H     -2.06625    -1.97722    -2.36736
O     -0.56210    -2.35460    -1.37499
H     -0.14932    -3.17256    -1.06684
O     -0.80683    -0.65875     1.25577
H      0.13053    -0.41588     1.06132
O     -0.68536    -1.38720     2.47095
H     -0.27311    -2.20163     2.12873
O      2.96449     1.93074    -0.88169
H      3.63431     2.58138    -1.11628
O      1.77378     2.58290    -1.32658
H      1.37067     2.86421    -0.47559
O      0.87356    -0.25875    -2.17545
H      0.29610    -1.00402    -1.91600
O     -0.06123     0.82377    -2.21860
H      0.54957     1.57321    -2.07028
O      1.58626    -3.08511     0.50962
H      1.70149    -2.13289     0.68483
O      0.75491    -3.49242     1.59530
H      1.38086    -3.92044     2.18657
