 20
-758.3071319455015
O      0.41987    -2.08553     1.07361
H      0.96090    -1.66623     0.38948
O     -0.79685    -1.34455     0.95446
H     -0.69400    -0.66618     1.64885
O      2.24065     0.69561     0.63752
H      2.97288     1.20603     0.27572
O      1.78757    -0.03869    -0.49895
H      1.05308     0.53226    -0.81307
O     -0.43616     0.69439     2.71159
H     -1.11864     1.19399     3.16690
O      0.08591     1.68945     1.83029
H      0.89652     1.23661     1.53174
O     -0.11229    -1.66773    -2.24844
H     -0.44099    -2.32235    -2.87192
O     -1.33848    -1.22724    -1.66748
H     -1.14989    -1.36926    -0.71516
O     -1.40240     1.50891    -1.77510
H     -1.45209     0.53988    -1.86164
O     -0.17992     1.64210    -1.04041
H     -0.49506     1.86658    -0.15269
