 40
-1516.6411500831255
O     -0.67804     1.47348     1.64187
H      0.10221     2.00432     1.39695
O     -0.42450     0.31072     0.85144
H     -1.30783     0.12835     0.46125
O      2.21700    -0.71456    -0.00518
H      2.62904    -1.45778     0.48975
O      1.23290    -1.37787    -0.79812
H      0.83143    -0.61091    -1.26344
O      0.10856     0.68946    -2.03882
H      0.45196     1.55048    -1.71105
O     -1.27277     0.99109    -2.27996
H     -1.65891     0.10309    -2.42318
O     -2.80792    -0.43408    -0.00820
H     -3.68904    -0.05896     0.11445
O     -3.03541    -1.84550    -0.03706
H     -2.18599    -2.16532     0.33774
O     -1.95816     3.12503    -0.81332
H     -1.83426     2.35582    -1.40136
O     -2.68934     2.54529     0.26867
H     -1.96917     2.26627     0.86802
O      0.48589     3.59540     0.08675
H     -0.42540     3.59869    -0.27699
O      1.19547     2.93066    -0.97147
H      2.03513     2.75857    -0.52298
O      2.23208     1.60949     1.27829
H      2.16011     0.73513     0.83713
O      3.59538     1.60573     1.68735
H      3.48558     1.64495     2.64088
O     -0.54880    -2.62499     0.70057
H      0.09145    -2.30294     0.02907
O     -0.01520    -2.04342     1.89029
H     -0.00864    -1.08886     1.65561
O      2.20253    -3.52288     1.65067
H      1.39547    -2.99754     1.83512
O      3.19862    -2.49151     1.73617
H      4.00362    -3.01396     1.79454
O     -2.20959    -1.54556    -2.59921
H     -2.73228    -1.78552    -1.81448
O     -1.06919    -2.39571    -2.39908
H     -0.37804    -1.87981    -2.83354
