 32
-1213.3097374668725
O      3.54163     1.42632     0.50999
H      2.93049     2.18652     0.56472
O      4.34958     1.63089     1.66521
H      5.22432     1.63679     1.26700
O     -1.24211    -3.55052    -0.50968
H     -1.39537    -3.09679    -1.34649
O     -0.06797    -2.87593    -0.06392
H     -0.30763    -2.61907     0.84515
O     -3.18154    -1.21173    -1.77777
H     -3.81559    -0.92553    -2.44402
O     -2.01856    -1.53018    -2.54121
H     -1.52115    -0.69029    -2.45345
O      0.41333     2.55389     0.80691
H      0.28837     2.24883    -0.11634
O      1.61841     3.31113     0.65385
H      1.48615     4.02059     1.28924
O      1.87546    -0.68433     0.59729
H      2.57882    -0.00167     0.54342
O      1.52310    -0.85938    -0.78042
H      0.97990    -1.67122    -0.69948
O      0.24573     1.34033    -1.55999
H      0.69530     0.49437    -1.33858
O     -1.05875     0.91660    -1.94266
H     -1.53764     1.05180    -1.09788
O     -0.89476    -1.48634     2.14491
H     -1.80095    -1.28331     1.85601
O     -0.32682    -0.17499     2.01896
H      0.50742    -0.36794     1.54446
O     -2.13194     0.94200     0.48112
H     -1.38803     0.85252     1.11548
O     -2.80063    -0.30146     0.71833
H     -2.87078    -0.66792    -0.18170
