 36
-1364.9744662068697
O      1.18677     2.17477    -0.38924
H      1.66397     1.89029    -1.20663
O      1.98675     1.51126     0.59677
H      1.55094     1.79355     1.42871
O     -1.30196    -1.35309    -0.67653
H     -1.09058    -2.20475    -1.09638
O     -1.26636    -0.46355    -1.78914
H     -2.15970    -0.08542    -1.73422
O     -0.24477     1.34610     3.19086
H     -0.15382     0.57249     2.59283
O      1.02092     1.97661     3.02630
H      1.50233     1.69781     3.81128
O     -0.04843    -0.74678     1.58903
H     -0.51116    -0.86392     0.73006
O      0.52555    -2.02721     1.83981
H      1.44054    -1.81473     1.57529
O     -1.33511     1.69676     0.40684
H     -0.46580     1.90757    -0.00502
O     -1.59842     2.87044     1.18409
H     -1.46907     2.50826     2.07034
O     -3.62907     0.70756    -0.59338
H     -2.94203     1.25647    -0.15158
O     -4.44383     1.68986    -1.23377
H     -5.25579     1.61208    -0.72582
O      2.54648    -1.07370     0.45789
H      2.32839    -0.11522     0.41445
O      2.36626    -1.48868    -0.89810
H      1.90148    -2.33562    -0.79374
O      1.22471     0.70178    -3.10441
H      0.56376     0.33984    -2.49688
O      2.37055     0.80084    -2.27604
H      2.45981    -0.10167    -1.91098
O     -0.22608    -3.75547    -1.26938
H     -0.39040    -4.69332    -1.39984
O      0.87033    -3.75760    -0.36571
H      0.45564    -3.44743     0.45741
