 40
-1516.6376837421521
O      4.20138     0.77052     0.85421
H      3.59529     0.02996     1.06947
O      4.59739     0.42176    -0.47516
H      5.52429     0.19397    -0.34746
O      1.93849    -1.60077     0.15874
H      1.85207    -0.76709    -0.34897
O      2.28157    -1.08493     1.45175
H      1.39238    -0.85867     1.79055
O     -1.38106     2.74204     0.20132
H     -2.11916     2.38999    -0.34423
O     -0.37841     3.04154    -0.77127
H      0.35495     3.29864    -0.18231
O      0.67487     0.87426    -1.88273
H      0.18732     1.68789    -1.61545
O      1.70969     0.84951    -0.89144
H      2.47102     1.22814    -1.35956
O     -0.33306    -0.67371     1.89093
H     -0.58685    -1.58365     1.66932
O     -1.09384     0.02919     0.91382
H     -0.67363     0.90458     0.87095
O      1.53086     3.26148     1.13415
H      1.58371     3.95990     1.79742
O      2.78634     3.36001     0.46930
H      3.21333     2.54135     0.76562
O     -3.18913     1.23797    -1.07411
H     -2.72247     0.48409    -1.49051
O     -3.56789     0.68202     0.18292
H     -2.70608     0.37818     0.52220
O     -2.83121    -2.28405     0.49596
H     -2.61866    -3.23197     0.48476
O     -4.18642    -2.22751     0.03225
H     -4.33507    -1.27630     0.13357
O     -0.59571    -3.81251    -0.32335
H     -0.54742    -3.01867    -0.89097
O      0.03788    -3.35597     0.87485
H      0.85896    -2.93374     0.54951
O     -1.97682    -1.06188    -1.69636
H     -2.29809    -1.53293    -0.89972
O     -0.60505    -1.47955    -1.67894
H     -0.12677    -0.62381    -1.71118
