 28
-1061.6416160682486
O      0.82468    -0.54637     2.35529
H      0.82553    -1.23815     1.67679
O      2.17974    -0.08319     2.35700
H      2.29255     0.12273     1.40689
O      1.91829    -0.77856    -2.70040
H      2.21433    -0.32585    -3.49742
O      0.58361    -1.16550    -3.02693
H      0.07586    -0.46430    -2.57493
O     -3.13845     0.39143     0.94861
H     -2.38348     0.78002     1.44889
O     -2.77145    -0.98436     0.92385
H     -1.15172    -1.63267     0.13458
O     -0.92964     1.43352     2.00067
H     -0.23501     0.76049     2.17245
O     -0.25633     2.36693     1.14598
H     -0.79539     2.27955     0.33588
O     -1.56404     1.63505    -1.05498
H     -2.25688     1.03145    -0.74111
O     -0.53978     0.75490    -1.48833
H     -0.13988     0.41818    -0.66790
O     -0.11655    -3.00125    -0.69710
H      0.20137    -2.74505    -1.57320
O     -0.21067    -1.71620    -0.09401
H     -3.30476    -1.36107     1.63035
O      2.11568     1.66108    -0.52602
H      1.51064     2.02840     0.13807
O      1.96366     0.27208    -0.24695
H      2.02152    -0.13990    -1.13440
