 36
-1364.9747335947764
O      1.67222     0.63713     1.49587
H      1.08958     0.07075     2.04772
O      0.69638     1.19317     0.59938
H      1.20803     1.21833    -0.23782
O     -1.78681    -3.22865     0.94058
H     -2.35755    -3.72170     1.53431
O     -2.00146    -1.90601     1.41308
H     -1.92226    -1.40161     0.57571
O     -0.91379     3.16811     1.26766
H     -0.23183     2.46594     1.18335
O     -1.95303     2.42813     1.91123
H     -2.34644     3.10310     2.47242
O      2.48638     0.56415    -1.19206
H      2.27958     0.12794    -2.03476
O      3.04497    -0.50704    -0.42051
H      2.83326    -0.15088     0.46608
O      0.11002     2.44443    -2.06314
H      0.11452     1.81950    -2.80403
O     -1.17601     2.15074    -1.50403
H     -1.19352     2.76909    -0.75978
O     -0.22897    -0.51527     2.91993
H     -0.88622    -1.09897     2.50053
O     -1.05869     0.42829     3.59988
H     -1.22326     1.09244     2.91339
O      0.20452     0.22099    -3.61329
H     -0.28855    -0.39187    -3.01750
O      1.51331    -0.32932    -3.51947
H      1.75348    -0.43110    -4.44507
O     -1.59117    -0.43875    -0.78108
H     -1.36643     0.47582    -1.06362
O     -0.90768    -1.25401    -1.73382
H     -0.21826    -1.69262    -1.18335
O      0.82702    -2.53970     1.04871
H     -0.07423    -2.90285     1.03192
O      1.07865    -2.41794    -0.35813
H      1.88119    -1.86338    -0.35846
