 36
-1364.9764756953427
O      3.92207     0.26370    -0.70003
H      3.30585    -0.24027    -0.14713
O      3.04966     0.71733    -1.74174
H      2.85150     1.62879    -1.47277
O     -0.92353    -2.74737    -0.21281
H     -1.02729    -2.16199    -0.99083
O     -0.73708    -1.76546     0.80995
H     -1.63727    -1.44806     0.99430
O     -2.38129     1.63426    -0.04394
H     -1.40396     1.74478    -0.16189
O     -2.74492     1.12311    -1.32446
H     -3.09003     1.90648    -1.76624
O     -3.27603    -0.35584     1.50193
H     -3.14138     0.41238     0.91368
O     -3.43534     0.32236     2.74745
H     -3.90524    -0.34032     3.26093
O     -1.12563    -0.86884    -2.09633
H     -1.64424    -0.08670    -1.81856
O      0.18317    -0.31376    -2.26765
H      0.76027    -1.06779    -2.00752
O     -0.68194     2.28755     2.41962
H     -0.01751     2.33992     1.71557
O     -0.83844     0.86923     2.49933
H     -1.78254     0.77277     2.73329
O      1.28060     2.02071     0.06498
H      1.43948     1.10339     0.39759
O      0.13714     1.85036    -0.77066
H      0.35519     1.08267    -1.35091
O      1.54392    -0.42908     0.95991
H      0.72886    -0.97737     0.88747
O      1.62427    -0.13494     2.34789
H      0.73437     0.24535     2.49140
O      1.81193    -2.18746    -1.41016
H      1.80736    -3.12960    -1.20291
O      2.63047    -2.10244    -2.57966
H      3.06540    -1.25921    -2.39014
