 28
-1061.6470301221218
O     -1.60850    -1.34985    -2.11088
H     -2.11360    -1.81934    -2.78271
O     -1.05114    -2.43340    -1.36776
H     -1.18931    -2.12560    -0.44723
O      0.26740    -1.67696     1.61617
H      0.77643    -1.64986     0.78045
O     -1.08691    -1.51760     1.16445
H     -1.21838    -0.57376     1.38090
O     -0.59844     0.99691     1.78227
H     -0.25047     1.36553     0.94079
O      0.61535     0.76887     2.50434
H      2.40421    -0.64605    -0.31157
O      3.26160     0.93314     1.52165
H      2.35688     0.99722     1.87029
O      3.06287     0.86141     0.11095
H      2.56144     1.66177    -0.10369
O     -2.36614     0.93073    -0.93037
H     -2.12446     0.04581    -1.25865
O     -3.18707     0.62217     0.18396
H     -2.73532     1.11948     0.87658
O      1.08459    -0.63445    -1.62551
H      0.56619    -1.34574    -2.03320
O      1.76862    -1.34388    -0.58115
H      0.63746    -0.20989     2.46223
O      0.41368     1.68168    -0.54370
H      0.60188     0.82880    -1.00008
O     -0.23743     2.43194    -1.55899
H     -1.15011     2.12134    -1.43182
