 32
-1213.3110110138641
O      2.26327     0.79013     1.05278
H      2.22701    -0.10468     1.44042
O      2.71302     0.51658    -0.27907
H      2.13710     1.13931    -0.76125
O      0.63372    -1.49537    -1.78567
H     -0.12477    -1.94882    -1.38020
O      1.70840    -1.87641    -0.92680
H      2.18748    -1.02863    -0.82036
O     -2.19502    -1.10225    -1.16439
H     -2.12259    -1.27211    -0.21443
O     -2.41409     0.30621    -1.20239
H     -1.66723     0.59607    -1.76014
O     -0.55136     0.56729     1.28566
H      0.15431     0.98748     0.75693
O     -1.67425     1.43323     1.12930
H     -2.07110     1.06441     0.31145
O      0.65310     1.81732    -1.24571
H      0.11982     2.63934    -1.21492
O     -0.01204     1.01697    -2.22732
H      0.39075     0.13640    -2.06513
O      1.68952    -1.67577     1.97223
H      1.47781    -2.08003     1.11495
O      0.41589    -1.56100     2.60425
H      0.09179    -0.70969     2.25507
O     -1.44233    -2.98212     1.03413
H     -0.83307    -2.78356     1.76617
O     -0.51954    -3.47998     0.06264
H     -0.85717    -4.36791    -0.09600
O     -0.87083     3.93260    -0.76333
H     -0.80575     4.88697    -0.86272
O     -0.41918     3.75627     0.58449
H     -0.99483     3.01787     0.86353
