 16
-606.6358271755145
O      0.51364     0.27561    -1.20172
H     -0.09119     0.90294    -1.63821
O      0.81014     1.05527    -0.02756
H      0.96782     0.34363     0.62295
O      1.25354    -1.05661     1.59934
H      0.73844    -1.77540     1.17988
O      0.53563    -0.87094     2.81822
H      1.24456    -0.97576     3.45943
O     -1.03630     2.31172    -2.00359
H     -0.70269     2.91942    -2.67244
O     -1.06325     3.14716    -0.83575
H     -0.38203     2.71172    -0.30219
O     -1.07123    -1.82072    -0.55081
H     -0.42854    -1.11918    -0.77402
O     -0.21052    -2.75975     0.11886
H     -0.85737    -3.38688     0.45541
