 40
-1516.6388429620715
O      2.36073    -0.94963     0.09481
H      1.39413    -0.83259    -0.06667
O      2.67377     0.24325     0.80658
H      2.97110     0.82593     0.08867
O     -2.90619    -0.20304     0.08262
H     -2.33736    -0.88513    -0.32890
O     -3.54647    -0.89884     1.15697
H     -2.93612    -0.65035     1.86764
O      0.36618     2.56151     0.76326
H     -0.61194     2.55710     0.70676
O      0.54944     1.59405     1.80363
H      1.34632     1.10822     1.50599
O     -0.36897     1.40331    -2.39200
H      0.53048     1.42835    -2.75247
O     -0.58129     2.78912    -2.10669
H     -1.42691     2.75376    -1.62437
O     -1.43033     0.03797     2.54933
H     -0.78087     0.70530     2.22511
O     -0.57667    -1.09555     2.67941
H     -0.37194    -1.10982     3.61964
O      2.64487     2.31171    -1.07738
H      1.75218     2.57578    -0.80044
O      2.43311     1.90189    -2.42404
H      2.81533     2.63757    -2.91669
O     -2.29753     2.26579     0.66035
H     -2.55203     1.30882     0.54126
O     -2.80126     2.78221    -0.57200
H     -3.47363     3.39395    -0.26253
O     -0.13433    -0.55510    -0.59078
H     -0.36317     0.22280    -1.15122
O     -0.95989    -1.58870    -1.13596
H     -0.24675    -2.15233    -1.52065
O      0.44968    -2.82120     0.98559
H      0.00738    -2.10707     1.49243
O      1.57938    -3.12894     1.80267
H      2.27232    -2.65616     1.31651
O      1.17623    -2.91164    -1.95206
H      1.97424    -2.48881    -1.60858
O      1.12627    -4.14660    -1.22724
H      0.81858    -3.81966    -0.35725
