 40
-1516.6380252901465
O      2.35905    -1.00026    -2.03490
H      1.98059    -1.89221    -1.93749
O      1.41329    -0.38839    -2.91628
H      1.21337     0.44175    -2.44135
O     -3.22590     0.32209     1.84653
H     -4.16279     0.11890     1.76186
O     -2.95934     1.05044     0.65039
H     -2.70610     0.32265     0.02777
O      0.70353     2.94591     2.62673
H     -0.01548     3.49965     2.29902
O      0.84463     2.05483     1.52206
H      0.31266     1.28017     1.81343
O     -0.17550    -1.28735     1.52520
H      0.66393    -0.96949     1.11595
O     -0.57247    -0.09533     2.22189
H     -1.54222    -0.11876     2.12894
O     -1.47193     3.90693     0.04782
H     -2.08041     4.61743    -0.17682
O     -1.91015     3.49712     1.34101
H     -2.27483     2.61610     1.13098
O     -0.63448     1.67052    -1.20251
H     -0.84555     2.52904    -0.77343
O      0.77222     1.77932    -1.43419
H      1.09969     1.54526    -0.54664
O     -1.51558    -0.69635    -2.02601
H     -1.13159     0.15071    -1.71165
O     -2.40362    -1.01604    -0.94935
H     -2.04032    -1.88866    -0.69321
O      0.04658    -2.84220    -1.95151
H     -0.41803    -2.06224    -2.31362
O     -0.72655    -3.07665    -0.76695
H     -0.18697    -2.67426    -0.06967
O      2.59931    -3.53170    -0.61023
H      1.96038    -4.24884    -0.69785
O      2.23743    -3.02377     0.67776
H      3.09430    -2.75113     1.02402
O      3.09768     0.20918     1.11322
H      2.74223     1.01654     1.51342
O      1.93849    -0.18509     0.38436
H      2.29151    -0.46348    -0.49852
