 24
-909.98138184114
O     -2.46533     0.15516     1.77208
H     -3.37916     0.25144     1.49194
O     -1.86339    -0.25505     0.55015
H     -1.12559    -0.80411     0.89840
O      0.67118    -2.88020    -1.13784
H      0.60567    -3.79700    -1.42107
O     -0.66257    -2.41821    -1.36037
H     -0.48493    -1.56260    -1.79652
O      1.53925     2.04872    -0.60600
H      0.61927     2.00123    -0.92469
O      2.01317     0.77175    -1.04902
H      1.87064     0.22259    -0.25610
O     -0.16780     0.04270    -2.36244
H      0.78136     0.21085    -2.18758
O     -0.74933     1.06292    -1.54181
H     -1.15323     0.54936    -0.81749
O      0.36420    -1.54120     1.15790
H      0.61732    -2.11262     0.40543
O      1.42886    -0.58560     1.20538
H      0.99584     0.16470     1.65990
O      0.52366     1.80460     1.99678
H      1.11308     2.25952     1.37682
O     -0.74047     2.22129     1.46651
H     -1.33222     1.55238     1.83801
