 20
-758.3055285000439
O     -0.72095     0.55698     1.63706
H     -1.52464     0.25914     1.18317
O     -0.28795     1.60554     0.74806
H      0.67800     1.42349     0.71215
O      2.76585     0.98050    -0.59501
H      1.95978     0.72279    -1.08791
O      2.27576     0.92785     0.75036
H      2.48568     0.02434     1.02318
O      0.73938    -1.63386     1.18571
H      0.26688    -0.80278     1.41446
O     -0.34000    -2.57388     1.22321
H     -0.09908    -3.09294     1.99578
O      0.53217     0.13761    -1.82187
H     -0.43283     0.22706    -1.83922
O      0.72835    -1.27743    -1.82700
H      0.97129    -1.44392    -0.90528
O     -2.19992     1.17819    -1.33377
H     -1.70596     1.71657    -0.69847
O     -2.74586     0.19158    -0.44608
H     -3.68832     0.37466    -0.51123
