 28
-1061.6446244394451
O      2.84470     0.46945    -2.01265
H      2.67723    -0.02287    -1.19690
O      1.54677     0.97051    -2.31935
H      1.39153     1.61864    -1.59761
O      0.21561    -0.25719     3.20880
H      0.69076    -0.39230     4.03631
O     -0.21479     1.09952     3.31189
H      0.25292     1.47633     2.54273
O      0.62311     2.25053    -0.17540
H     -0.32504     1.99662    -0.20021
O      1.08112     1.53789     0.97491
H     -0.28629    -2.25344    -2.75208
O     -2.69245     0.64101    -1.15221
H     -2.05295     0.43205    -1.84711
O     -1.84133     1.24754    -0.17546
H     -1.91032     0.60590     0.56027
O     -1.44172    -1.97047     0.88026
H     -1.70152    -1.75116    -0.02054
O     -1.79909    -0.77113     1.58099
H     -1.07093    -0.69038     2.23275
O     -0.70570    -0.39972    -2.78756
H      0.14123     0.09739    -2.69719
O     -0.40098    -1.59119    -2.06057
H      1.12359     0.62702     0.61821
O      1.14734    -0.85857    -0.05536
H      0.58158    -1.17340    -0.79301
O      1.24448    -2.00599     0.77912
H      0.30495    -2.12121     1.01552
