 16
-606.6385715029907
O     -1.41575     0.48193    -0.06987
H     -1.43850    -0.49509    -0.17840
O     -1.51385     0.58119     1.35826
H     -2.37593     0.99694     1.45504
O      1.39925    -0.49497     0.03883
H      1.57265     0.42114    -0.25778
O      1.49287    -0.37400     1.46084
H      0.63930     0.02869     1.67068
O      1.71222     1.99990    -0.94380
H      2.01327     2.11576    -1.85042
O      0.45476     2.68096    -0.95634
H     -0.14811     1.94901    -0.76160
O     -0.16679    -2.60813    -0.69369
H      0.39323    -1.87401    -0.36981
O     -1.45833    -2.18362    -0.24633
H     -1.61098    -2.75177     0.51662
