 32
-1213.307625925593
O      4.00300    -0.39820     1.27810
H      4.00489    -0.56040     0.32076
O      2.80557    -1.10938     1.62261
H      2.15228    -0.39957     1.69754
O     -0.24987    -2.07735    -1.43409
H      0.70807    -2.11616    -1.23894
O     -0.59967    -0.85104    -0.78743
H     -0.79075    -0.25020    -1.52989
O     -1.84058     1.31682    -2.28615
H     -1.49724     1.84085    -3.01596
O     -1.15822     1.92209    -1.18672
H     -1.87384     1.97092    -0.52288
O     -2.34520    -1.71552     1.94402
H     -1.64122    -1.13534     2.28334
O     -2.75082    -0.98001     0.78361
H     -2.03668    -1.19418     0.15457
O      1.31020     1.10872    -2.86771
H      2.21460     1.17466    -3.18095
O      1.53230     1.09351    -1.45535
H      0.75085     1.58117    -1.15006
O      2.35671    -2.17468    -0.71812
H      2.42700    -2.02626     0.25187
O      3.10844    -1.04584    -1.16983
H      2.41616    -0.36431    -1.21940
O      0.32413     0.51174     1.30274
H     -0.03052    -0.05881     0.59585
O     -0.59146     0.28505     2.36821
H     -1.20258     1.03485     2.25031
O     -3.08173     1.66311     0.72727
H     -3.06358     0.68029     0.83858
O     -2.49489     2.11741     1.94324
H     -3.26514     2.34429     2.47223
