 28
-1061.6428205633053
O     -1.25231     1.14271     1.35254
H     -1.86210     0.47436     0.97700
O     -0.72830     1.80869     0.20305
H      0.21666     1.54502     0.24037
O      0.83067     0.74859     2.95758
H     -0.00582     0.88409     2.46943
O      0.58002    -0.54147     3.51779
H      1.05781    -0.48019     4.34894
O     -2.80842    -0.75082     0.31339
H     -3.65154    -1.10118     0.01291
O     -2.49994    -1.61190     1.41004
H      1.94223    -0.84534    -2.21507
O     -0.98354     1.36973    -2.45433
H     -1.06360     1.52894    -1.49118
O      0.20559     2.11076    -2.72890
H     -0.13100     2.88771    -3.18702
O      1.28367    -1.47536     1.11386
H      1.04056    -1.26010     2.03731
O      0.02418    -1.88936     0.57011
H      0.10403    -1.63655    -0.37456
O      0.14718    -1.28981    -2.02315
H     -0.20030    -0.52725    -2.51229
O      1.41470    -1.54866    -2.62893
H     -1.58131    -1.84214     1.17156
O      2.13197     0.76526    -1.39007
H      1.46219     1.33368    -1.80822
O      1.76834     0.89417    -0.01664
H      1.75471    -0.03797     0.29346
