 40
-1516.6399912674485
O     -0.53031     0.18183     2.82726
H     -0.17326     0.84800     2.20803
O      0.28428    -0.96584     2.52360
H      1.18572    -0.65418     2.78050
O      1.99014     0.71582    -2.15972
H      1.73591     0.07961    -1.45448
O      2.66029     1.70145    -1.39273
H      3.57148     1.59765    -1.68051
O     -0.66944     1.94650    -1.86180
H     -1.63327     1.95069    -1.68548
O     -0.56494     1.03992    -2.96572
H      0.40290     0.96628    -3.00351
O     -2.73385    -0.35791     1.31995
H     -2.16225    -0.28778     2.10500
O     -1.71405    -0.25224     0.31756
H     -1.86181    -1.04327    -0.23062
O     -3.29058     3.10708    -0.26218
H     -4.22188     3.32818    -0.36064
O     -3.23097     1.84858    -0.93154
H     -3.06580     1.23526    -0.19518
O      1.78819     2.14183     1.09153
H      2.11733     1.89765     0.20261
O      0.37283     1.96458     0.98898
H      0.20943     1.90860     0.03154
O      3.63971    -0.32853     2.00392
H      3.09739    -0.89217     1.42475
O      2.63401     0.25301     2.84304
H      2.43670     1.08304     2.36751
O     -1.16418    -2.96430     0.80347
H     -0.66814    -2.54857     1.52467
O     -0.10607    -3.34507    -0.08009
H     -0.41751    -3.01386    -0.94149
O      1.09798    -0.82711    -0.21445
H      0.39326    -0.68639     0.45146
O      1.95982    -1.78826     0.38125
H      1.37050    -2.57093     0.30072
O     -1.78672    -1.34471    -2.36462
H     -1.36754    -0.48955    -2.59405
O     -0.70569    -2.25920    -2.51371
H     -0.98130    -2.75584    -3.28967
