 20
-758.3013999366848
O     -3.20811    -1.08200     1.58662
H     -3.52147    -1.74047     2.21582
O     -2.15697    -0.45472     2.33145
H     -1.37603    -0.87442     1.93269
O      2.28571     2.60025    -0.84437
H      1.70428     2.32419    -0.12019
O      3.13300     1.45539    -0.94275
H      4.00687     1.83911    -0.80948
O     -0.35913    -1.88486     0.53716
H      0.26361    -1.59389    -0.15016
O     -1.37359    -2.52904    -0.25202
H     -2.15343    -2.05077     0.06342
O      1.28588    -1.23774    -1.59186
H      0.97202    -1.70782    -2.36967
O      1.02016     0.11707    -1.96215
H      1.87802     0.52722    -1.75388
O      0.08092     1.22179     0.56208
H     -0.04128     0.86057    -0.33040
O     -1.11461     1.97951     0.75575
H     -1.60503     1.40237     1.35825
