 36
-1364.973220442349
O     -0.68392     3.59741    -0.61678
H     -1.26259     2.89026    -0.95287
O     -0.70681     3.25715     0.77814
H      0.20726     2.93414     0.92665
O      0.10424    -0.34605     2.29560
H      0.68842    -1.11717     2.47587
O     -0.93480    -0.99813     1.54662
H     -1.46495    -0.23763     1.23891
O      0.09058    -3.67483    -0.79113
H     -0.69523    -3.83357    -1.33189
O     -0.41052    -3.76559     0.53961
H     -0.69898    -2.85476     0.71021
O     -3.18573    -0.96151    -1.40099
H     -3.60768    -1.30345    -0.60817
O     -2.09482    -1.87499    -1.55043
H     -1.33119    -1.25700    -1.45407
O      1.68015     0.97508     0.60396
H      1.04688     0.59909     1.25157
O      1.78777     2.32851     1.05510
H      2.19367     2.71023     0.26106
O     -2.31079     1.15425     0.69402
H     -1.84240     1.94290     1.03587
O     -2.19680     1.42048    -0.71546
H     -2.60980     0.61232    -1.08014
O      1.78070     3.08127    -1.57386
H      0.89130     3.42889    -1.37383
O      1.42746     1.83894    -2.19450
H      2.24514     1.34010    -2.08676
O      2.78029    -1.96300     1.30717
H      2.32765    -1.33287     0.72165
O      1.71432    -2.43662     2.13435
H      1.36625    -3.19438     1.64053
O      1.21689    -1.24118    -1.18563
H      0.83933    -2.13546    -1.07287
O      0.03367    -0.43612    -1.19827
H      0.40450     0.45396    -1.03966
