 28
-1061.6459811133534
O      2.12179    -2.02929    -0.67037
H      1.43785    -2.60066    -1.05359
O      1.94958    -0.85394    -1.46910
H      1.68943    -0.18800    -0.80299
O     -0.46180    -2.45680    -1.58448
H     -0.69998    -2.15663    -0.69643
O     -0.67558    -1.27982    -2.36753
H      0.23493    -0.99541    -2.53905
O     -1.29259     1.15708     3.40751
H     -0.50375     1.44491     2.92279
O     -1.68900     0.02219     2.64083
H      1.65861    -1.78270     0.98643
O      0.95661     0.89632     0.31981
H     -0.00167     0.67180     0.30545
O      1.22493     1.07836     1.70103
H      1.30630     0.13700     1.97639
O     -1.55342     0.41166    -0.26283
H     -1.52189     0.05552    -1.17107
O     -2.18288     1.68886    -0.41133
H     -1.49668     2.19421    -0.87319
O     -0.17696    -1.78997     1.31972
H     -0.67658    -1.14907     1.85745
O      1.15863    -1.57133     1.79775
H     -2.42834     0.35600     2.11330
O      0.47738     1.63925    -2.56426
H      1.14568     1.94305    -3.18913
O      0.26156     2.79762    -1.75023
H      0.75560     2.55035    -0.95246
