 36
-1364.9774389679947
O      2.07308     2.84977    -1.15450
H      1.12013     2.79483    -1.33551
O      2.21568     1.83425    -0.17082
H      2.73431     1.14224    -0.63761
O     -3.07612    -0.64929    -0.01621
H     -2.31505    -0.91798    -0.56723
O     -2.61145    -0.96212     1.30625
H     -2.59575    -0.06268     1.68930
O     -0.86126    -1.46419    -1.30202
H     -0.53844    -2.10219    -0.64437
O      0.09318    -0.41566    -1.18544
H     -0.08813    -0.01239    -0.29736
O     -0.91951     2.53942    -1.43296
H     -1.73276     2.53557    -0.88538
O     -1.32569     1.74945    -2.56322
H     -0.80894     0.94776    -2.41517
O      3.61307     0.01013    -1.56470
H      3.92526     0.21245    -2.45393
O      2.96291    -1.24282    -1.71835
H      2.03716    -0.98156    -1.59250
O      0.11027     1.88780     1.35998
H      0.90471     2.00507     0.78059
O     -0.02616     0.46109     1.28967
H      0.86587     0.12882     1.48677
O     -2.58527     1.70471     1.45898
H     -1.64985     1.96997     1.40483
O     -3.05403     2.02669     0.14082
H     -3.30938     1.13549    -0.16459
O      1.59336    -1.74466     0.92054
H      1.23948    -2.44642     1.48804
O      3.00777    -1.78038     1.16007
H      3.30740    -1.90997     0.25172
O     -0.24447    -3.28055     2.35892
H     -0.32671    -4.23473     2.44720
O     -0.92988    -3.05619     1.13240
H     -1.56984    -2.35930     1.38722
