 32
-1213.311838240607
O     -2.12373    -0.18805     0.94863
H     -1.59615     0.60317     0.70748
O     -2.91055    -0.49823    -0.19704
H     -2.45915    -0.00918    -0.91980
O      1.90818     0.85086    -0.65612
H      1.50984    -0.04317    -0.54744
O      2.76115     0.93109     0.48809
H      2.15372     1.38159     1.09677
O     -0.86860    -2.72679    -1.47464
H      0.04287    -2.83546    -1.16928
O     -1.57072    -2.84897    -0.23007
H     -2.18107    -2.08811    -0.27149
O      0.49386     2.64902    -1.96307
H      1.11879     2.00728    -1.55065
O      0.48689     3.69906    -1.00427
H      1.07097     4.35051    -1.40566
O     -0.07154    -0.52204     3.01357
H     -0.12478    -0.87773     3.90450
O     -0.37119    -1.66448     2.21808
H     -1.21822    -1.37251     1.81351
O     -1.50330     0.63404    -2.16728
H     -1.06234     1.49596    -2.16104
O     -0.35132    -0.21851    -2.26413
H     -0.72611    -1.10198    -2.07981
O      2.49071    -2.23676     0.53032
H      3.03649    -1.44641     0.64904
O      1.29176    -1.62928     0.05793
H      0.69223    -1.71164     0.83206
O     -0.46564     1.88583     0.74169
H     -0.13145     2.64695     0.22817
O      0.55138     1.74037     1.73297
H      0.26063     0.92310     2.17981
