 32
-1213.316593232534
O      3.18203     1.21098     1.14502
H      3.84459     1.49627     1.78256
O      2.78680     2.43301     0.54167
H      1.87664     2.51062     0.87198
O     -0.34280    -2.73579    -1.57425
H     -0.66808    -3.12504    -2.39102
O     -1.52565    -2.24848    -0.96252
H     -1.50177    -1.30028    -1.24449
O     -1.16000     0.23312    -1.66716
H     -0.23597     0.55715    -1.58211
O     -1.91015     1.23445    -0.97216
H     -2.44663     0.66803    -0.36972
O     -0.13595     2.43482     0.62743
H     -0.82600     2.19394    -0.02618
O     -0.63092     1.81976     1.82131
H     -0.44019     0.87875     1.65128
O      1.38964     1.01888    -1.56400
H      2.01274     1.70760    -1.28350
O      2.15678     0.24146    -2.49187
H      2.26308    -0.57852    -1.97556
O      2.09682    -1.93937    -0.88990
H      1.17902    -2.24108    -1.03404
O      2.05535    -1.49226     0.46010
H      2.43381    -0.60051     0.38425
O     -1.06329    -1.99170     1.68899
H     -1.19641    -2.36878     0.80323
O     -0.33875    -0.81678     1.33955
H      0.53625    -1.16771     1.05120
O     -3.50231     0.75596     1.70529
H     -2.68553     1.26379     1.83104
O     -3.08155    -0.28437     0.82804
H     -2.56707    -0.88340     1.40474
