 16
-606.6421930362576
O     -1.32466    -0.57072     1.51481
H     -1.59089    -0.60287     2.44103
O     -1.85052     0.69793     1.10181
H     -1.03261     1.22935     1.16392
O      0.74229     1.42926     1.24119
H      0.95136     1.46114     0.28170
O      1.24682     0.10919     1.51853
H      0.42716    -0.39615     1.40073
O      1.21146     0.80064    -1.27754
H      0.40158     0.28293    -1.45105
O      2.19101    -0.24117    -1.15946
H      2.26797    -0.30575    -0.19690
O     -1.15003    -0.51868    -1.47996
H     -1.71187    -0.42312    -0.69834
O     -0.77209    -1.90064    -1.38157
H     -0.81981    -2.15415    -2.30851
