 28
-1061.6444021796788
O     -2.29110    -2.09634    -1.29376
H     -2.87022    -2.86388    -1.22572
O     -1.31302    -2.54266    -2.23022
H     -0.54591    -2.68188    -1.63539
O      3.23824     0.47744     0.64216
H      4.14922     0.48249     0.94867
O      2.78386    -0.79768     1.10254
H      2.48571    -1.19348     0.25471
O     -0.43830    -0.91019     1.31147
H     -0.01539    -0.02431     1.39247
O     -1.74810    -0.59271     0.83266
H      0.93511    -0.87102    -1.32321
O     -0.27401     0.24292    -1.67348
H     -0.76940     0.17639    -2.50342
O      0.23677     1.57832    -1.65883
H     -0.36440     1.98553    -1.01532
O     -2.06422     1.98931     0.17144
H     -2.00851     1.06841     0.49917
O     -2.17585     2.71210     1.40089
H     -2.56439     3.53078     1.08209
O      0.71867    -2.52925    -0.43877
H      0.36563    -1.99072     0.30325
O      1.56108    -1.59369    -1.10647
H     -1.82908    -1.16493     0.04399
O      0.68621     2.73452     1.37572
H     -0.21205     2.80741     1.71753
O      0.91191     1.34500     1.63148
H      1.80033     1.19350     1.24448
