 36
-1364.9738868174059
O      1.37044     3.44280    -1.78197
H      1.02626     2.60218    -2.13932
O      2.07932     2.92199    -0.65180
H      2.81647     3.53299    -0.57059
O     -2.87636    -0.62550    -0.52043
H     -2.45915    -1.37778    -0.06653
O     -2.53416    -0.86991    -1.88514
H     -2.26282     0.01340    -2.16773
O      0.64089     0.18731     3.24278
H      0.61862     0.90506     2.58013
O      1.44858    -0.77113     2.56519
H      0.77340    -1.28285     2.08160
O     -0.27292    -2.01853    -2.75948
H     -1.15267    -1.87065    -2.36913
O      0.48523    -2.34629    -1.59950
H      1.19448    -1.68523    -1.61476
O     -0.45572     0.79035    -3.01263
H     -0.21382    -0.09448    -3.32361
O      0.51701     0.93971    -1.98316
H     -0.00344     0.88754    -1.14851
O     -0.59884     1.27948     0.39868
H     -1.22923     0.94737     1.06827
O      0.41043     1.90028     1.20942
H      1.00250     2.27526     0.52697
O     -2.25016     0.41087     2.34273
H     -2.87505     0.87300     2.90996
O     -1.86281    -0.70699     3.14523
H     -0.94573    -0.43767     3.37924
O      3.43605     0.15412    -0.63503
H      2.97058     0.87055    -1.08245
O      2.33718    -0.63764    -0.18776
H      2.32091    -0.48016     0.77168
O     -0.19636    -2.05868     0.94953
H      0.02279    -2.21446     0.00396
O     -1.56127    -2.47745     1.00978
H     -1.78293    -2.14554     1.89250
