 36
-1364.9804020640536
O      2.36052     2.13052     1.60137
H      2.66222     1.79180     0.73462
O      2.42855     0.97515     2.43033
H      1.49752     0.72288     2.48791
O     -0.68096    -1.13035     2.11772
H     -0.68595    -2.01205     1.71136
O      0.06278    -0.40985     1.13891
H     -0.62884     0.14800     0.72164
O      0.06815     3.44067    -0.03950
H     -0.84082     3.28531    -0.35597
O     -0.09547     3.01458     1.32390
H      0.83807     2.78816     1.54433
O      1.98758    -1.41184    -1.33909
H      1.08740    -1.31851    -1.70032
O      1.77440    -2.00816    -0.06311
H      1.27353    -1.31595     0.41692
O     -1.89805     1.30317     0.60124
H     -1.39783     1.90862     1.18925
O     -2.19483     2.18780    -0.48025
H     -1.98872     1.60437    -1.23796
O     -3.16081    -1.53158     0.13792
H     -2.89298    -0.61937     0.31540
O     -2.49570    -1.80675    -1.08764
H     -1.82934    -2.47064    -0.85289
O      1.45493     1.70126    -1.62341
H      1.10898     2.39029    -1.01887
O      2.56847     1.17280    -0.89909
H      2.47529     0.20780    -1.06279
O     -0.25738    -0.23209    -2.12341
H      0.30668     0.56910    -2.08627
O     -1.55676     0.33249    -2.24306
H     -2.08131    -0.44598    -1.95280
O     -0.48966    -4.03502     0.89197
H     -0.54099    -4.99597     0.89243
O     -0.23136    -3.75577    -0.48992
H      0.65539    -3.34516    -0.42035
