 40
-1516.6340049534756
O      1.90904     1.97579    -0.98646
H      1.39315     2.79831    -0.86631
O      1.69159     1.70108    -2.37173
H      1.05229     0.96235    -2.31607
O      0.32814    -0.94012     1.76971
H     -0.26915    -0.16364     1.77040
O     -0.59118    -2.03428     1.71120
H     -0.14242    -2.57690     1.04386
O     -0.00651     4.17548     0.84675
H      0.69248     3.71377     1.35590
O      0.61972     4.25817    -0.43379
H      0.89232     5.18091    -0.47720
O     -1.55034    -2.88242    -1.84806
H     -1.69954    -1.91192    -1.77168
O     -2.87578    -3.41562    -1.83883
H     -2.94178    -3.76017    -2.73411
O     -2.91049    -1.27999     0.62115
H     -2.12396    -1.68140     1.04312
O     -3.91989    -2.23770     0.92268
H     -3.93819    -2.73884     0.09983
O      1.14838    -2.32738    -0.56983
H      2.03570    -1.91850    -0.52283
O      1.30921    -3.45710    -1.42717
H      0.44550    -3.41910    -1.86394
O      1.18763     1.80256     2.91574
H      1.88699     1.61248     3.55026
O      1.86745     2.62351     1.96793
H      2.19056     1.97607     1.31393
O      2.93901    -0.33892    -0.25063
H      2.66667     0.48918    -0.69883
O      2.79647     0.03906     1.12320
H      1.95314    -0.38595     1.36349
O     -1.52219     1.00930     1.42236
H     -2.30827     0.50496     1.15353
O     -1.24923     1.72241     0.21353
H     -1.13492     2.63186     0.53852
O     -1.27840    -0.25684    -1.61600
H     -1.18151     0.50813    -1.01089
O      0.04921    -0.43220    -2.10997
H      0.42226    -1.04712    -1.44802
