 36
-1364.9793626468522
O      1.46832     2.78477     0.32767
H      1.36520     2.05417     0.98071
O      2.21249     2.11185    -0.69690
H      3.10796     2.42492    -0.54022
O      1.29862     0.60318     1.85501
H      1.51971    -0.08131     1.18935
O     -0.03372     0.26927     2.23667
H     -0.54044     1.03384     1.89683
O     -1.03111    -2.16346    -1.23854
H     -0.11299    -2.35354    -0.94376
O     -0.91334    -2.17999    -2.65720
H     -0.81485    -1.23895    -2.84607
O      0.29230     0.38708    -1.89717
H     -0.43588     0.54532    -1.25250
O      0.39817     1.62920    -2.57569
H      1.18146     1.98045    -2.11702
O      1.92327    -0.93262    -0.24137
H      1.46355    -0.53033    -1.00717
O      1.47182    -2.28707    -0.31070
H      1.59909    -2.60115     0.61161
O     -2.41759    -1.56845     1.00462
H     -2.10321    -2.01079     0.19286
O     -1.45690    -2.01303     1.95710
H     -0.88827    -1.22776     2.07085
O     -1.47487     3.27221    -1.47824
H     -0.92719     2.75678    -2.10146
O     -0.65241     4.39129    -1.16518
H      0.00451     3.99103    -0.57909
O      1.41233    -3.13667     2.20231
H      1.88442    -3.64361     2.86851
O      0.39088    -4.04304     1.79199
H     -0.38026    -3.45551     1.87195
O     -1.56401     1.88302     0.75853
H     -1.69602     2.57025     0.06368
O     -1.61654     0.74066    -0.10243
H     -2.13597     0.09510     0.42130
