 32
-1213.3112051971652
O     -0.43305    -1.67903     2.07815
H      0.25464    -1.15478     2.53382
O     -1.28610    -0.63923     1.58214
H     -1.39663    -0.90734     0.65261
O     -0.63795    -1.46386    -3.02535
H     -0.18499    -1.61812    -3.86158
O     -1.39313    -0.27767    -3.28553
H     -0.80579     0.39460    -2.87442
O      2.47685     0.12528     0.32078
H      1.69873    -0.23812    -0.15257
O      2.23861     1.52902     0.36004
H      1.44680     1.61196     0.92825
O     -0.21268     1.76310     1.52352
H     -0.55511     0.84972     1.67123
O     -0.97316     2.19720     0.38994
H     -1.79943     1.69582     0.47168
O      1.31975     2.12470    -2.09490
H      1.81800     1.96402    -1.26910
O      0.17473     1.31117    -1.85486
H     -0.24808     1.74830    -1.08839
O      0.65230    -2.64392    -0.18285
H      0.35714    -2.56365     0.74042
O      0.42598    -1.28676    -0.57144
H      0.04860    -1.39558    -1.46834
O      2.47424    -0.95766     2.75759
H      2.59573    -0.59441     1.85386
O      1.40469    -0.12692     3.20424
H      1.81130     0.36675     3.92282
O     -3.36977     0.63630    -0.47979
H     -4.25818     0.42781    -0.17451
O     -2.90282    -0.65225    -0.88243
H     -2.77618    -0.52283    -1.83737
