 20
-758.306632816509
O     -0.73495    -1.14808     1.47180
H     -1.57305    -1.05328     0.99475
O      0.04349    -1.80265     0.45759
H      0.90940    -1.84839     0.88609
O      2.93395    -0.51029    -0.41269
H      2.10447    -0.69461    -0.87199
O      2.64368    -0.93000     0.92619
H      2.35425    -0.09389     1.31660
O      0.56869     1.08001     0.96753
H      0.09263     0.28844     1.31492
O     -0.34226     2.13611     1.26552
H     -1.14493     1.85140     0.80739
O      0.63024    -0.19991    -2.23589
H      1.10525     0.23953    -2.94620
O     -0.06898     0.90100    -1.64590
H      0.37449     0.99018    -0.77276
O     -2.48524    -0.35498    -0.61401
H     -1.76631    -0.11893    -1.22190
O     -2.93600     0.93981    -0.20815
H     -3.82878     0.96572    -0.56784
