 40
-1516.6408721481696
O     -2.05529     2.14826     2.15860
H     -1.16074     2.44034     2.40831
O     -2.10533     2.61595     0.79969
H     -2.11373     1.77270     0.32716
O      2.86644    -1.77754    -0.97295
H      3.58015    -2.42415    -0.98002
O      1.95323    -2.35472    -0.03881
H      1.93045    -1.67658     0.65776
O      1.67858     0.48134    -3.05309
H      0.81566     0.84665    -3.31957
O      1.38189    -0.91608    -3.03085
H      1.96759    -1.21474    -2.30518
O     -2.32254    -0.48820     1.84280
H     -2.38189     0.42131     2.19617
O     -1.53583    -0.19993     0.68862
H     -0.62619    -0.20694     1.07149
O     -1.10529     2.22373    -2.11780
H     -1.65601     2.89859    -2.52356
O     -0.90576     1.31286    -3.18984
H     -1.34909     0.51177    -2.82197
O      1.32272     0.86520    -0.39484
H      1.68832     0.85999    -1.30231
O      0.81899     2.19844    -0.25870
H      0.04652     2.18802    -0.85579
O      0.57022     2.81144     2.31743
H      0.78953     2.58414     1.38283
O      1.34668     1.86925     3.04723
H      1.99750     2.42862     3.48149
O     -0.92890    -3.77587     0.39240
H     -0.70937    -3.24222    -0.38238
O     -0.63163    -2.89303     1.46479
H     -1.43582    -2.35861     1.57365
O      0.74164    -0.49267     1.96647
H      1.06785     0.30263     2.43419
O      1.29950    -1.55632     2.71884
H      0.65750    -2.23976     2.46174
O     -0.98937    -1.94565    -2.13977
H     -0.18235    -1.54648    -2.52197
O     -1.81792    -0.80381    -1.91246
H     -1.76733    -0.69465    -0.93744
