 36
-1364.9769030162033
O      1.47618     0.70128    -1.55170
H      0.92465     1.51830    -1.44619
O      2.34838     0.73408    -0.41471
H      2.70426    -0.17224    -0.43633
O     -3.57140    -1.20276     0.46103
H     -2.80421    -1.72231     0.74292
O     -2.91370    -0.12296    -0.19723
H     -3.14416     0.64663     0.34351
O     -1.39776    -0.38586    -2.35349
H     -1.92606    -0.36338    -1.52820
O     -0.29878    -1.20636    -1.97362
H      0.39375    -0.52407    -1.82561
O     -0.37782     2.52325    -1.39190
H     -1.20449     2.57477    -0.86795
O     -0.84093     2.22362    -2.70787
H     -0.99958     1.25929    -2.65025
O      3.16529    -1.88711    -0.50143
H      3.43676    -2.26693     0.34456
O      2.05425    -2.73039    -0.80951
H      2.14752    -2.83572    -1.76270
O      0.85218     1.28952     1.71133
H      1.35563     1.22276     0.87109
O     -0.47590     1.04446     1.23580
H     -0.47308     0.06418     1.16294
O     -2.13534     3.13384     1.42687
H     -1.42102     2.46817     1.49662
O     -2.61078     2.77397     0.11949
H     -3.21049     3.49976    -0.08221
O      2.99602    -0.63695     2.42852
H      2.15143    -0.15401     2.41947
O      2.55564    -1.98760     2.31709
H      2.66445    -2.31968     3.21570
O     -0.79884    -2.44126     0.35873
H     -0.58553    -2.04613    -0.51529
O     -0.11886    -1.56448     1.25144
H      0.74595    -1.98789     1.36733
