 36
-1364.9773617944647
O      2.19923     0.51910    -1.25832
H      2.11814    -0.32127    -1.74789
O      0.82528     0.89943    -1.28792
H      0.64969     1.28945    -0.39632
O     -0.47545    -0.48796     2.94013
H      0.36291    -0.11648     2.60989
O     -1.41642     0.16985     2.08872
H     -1.69950    -0.55608     1.48809
O     -1.66900    -1.93063     0.40773
H     -0.95735    -2.51097     0.75356
O     -1.03733    -1.48231    -0.80024
H     -1.42823    -0.58475    -0.89994
O     -1.98666     0.96808    -1.19584
H     -1.97948     1.48790    -2.01316
O     -3.05877     1.51773    -0.43080
H     -2.56763     2.21715     0.03915
O     -0.31596     2.59688    -2.97176
H      0.23141     1.96397    -2.45802
O     -0.27689     3.72912    -2.11078
H      0.34898     4.31265    -2.55105
O      1.37622    -1.90437    -1.73907
H      0.42527    -1.76767    -1.52902
O      1.48428    -3.31450    -1.75869
H      1.17889    -3.54531    -0.87256
O     -0.08884     2.12111     0.86843
H     -0.69522     1.49456     1.32817
O     -1.01488     3.09021     0.38594
H     -0.64445     3.29839    -0.49311
O      2.33305    -0.84231     1.13153
H      2.41377    -0.40006     0.25937
O      1.91209     0.23336     1.95819
H      2.71743     0.43710     2.44334
O      0.60021    -2.95880     1.22343
H      1.28103    -2.25896     1.23540
O      0.24451    -3.08822     2.59003
H     -0.12734    -2.20851     2.78669
