 40
-1516.644895388035
O      2.39117     2.21510     1.35870
H      2.15559     2.58415     0.48650
O      1.74991     3.11103     2.26632
H      0.83438     2.78123     2.23198
O      1.44414    -1.26888    -1.08604
H      2.08735    -1.93362    -0.79519
O      0.57892    -2.09229    -1.88668
H      0.19473    -1.41741    -2.47203
O     -1.53067     0.37472    -2.16917
H     -1.88393     1.25521    -2.40680
O     -0.35397     0.24742    -2.97801
H      0.27492     0.75021    -2.42880
O     -0.58439     1.68767     1.90355
H     -0.06144     0.85638     1.91438
O     -1.04588     1.62042     0.55415
H     -1.52156     0.74806     0.56605
O     -2.37929     2.89903    -2.29823
H     -2.95579     3.47787    -2.80577
O     -3.23027     2.50783    -1.22130
H     -2.59825     2.55160    -0.49120
O      0.96092     1.65670    -1.12979
H      0.22163     1.69078    -0.47302
O      1.46870     2.98036    -1.07231
H      1.99357     2.98141    -1.87523
O      2.14714    -0.38384     1.78038
H      2.30795     0.58853     1.71576
O      0.79399    -0.41502     1.32305
H      0.94283    -0.65694     0.37501
O     -0.78938    -3.70891     0.60437
H     -1.17617    -3.09683    -0.04825
O     -0.97130    -2.92044     1.80165
H     -0.04913    -2.90486     2.11543
O      1.70438    -3.04067     1.84317
H      2.08447    -2.14737     1.83748
O      2.01676    -3.50350     0.51833
H      1.16223    -3.89279     0.28010
O     -2.00075    -1.58624    -0.44928
H     -1.82557    -0.90425    -1.12705
O     -2.13934    -0.76119     0.72086
H     -1.81564    -1.40126     1.39002
