 40
-1516.648181142948
O      3.91440     1.72156    -0.28634
H      4.80229     1.84001     0.06995
O      3.10234     2.48502     0.59544
H      2.74742     1.78354     1.17075
O      2.56096    -0.11102     1.76180
H      2.84637    -0.62871     0.98134
O      1.52771    -0.94049     2.29233
H      0.75016    -0.37801     2.15973
O     -0.35075     2.87598    -0.25270
H     -0.45439     2.17922     0.43389
O      0.77677     2.35407    -0.97880
H      1.52014     2.85698    -0.60354
O     -0.65982     0.67325     1.13363
H     -0.83471     0.00842     0.43758
O     -1.94637     0.89155     1.70604
H     -2.15555    -0.01920     2.04911
O     -2.30406    -1.65693     2.27969
H     -1.77698    -2.33613     1.81551
O     -3.57315    -1.75363     1.63251
H     -3.34629    -1.38873     0.75603
O      2.92336    -1.35598    -0.55262
H      1.97896    -1.55328    -0.69074
O      3.19286    -0.48754    -1.65038
H      3.39828     0.34366    -1.18849
O     -2.45311     1.70853    -1.61271
H     -1.73953     2.33357    -1.37344
O     -3.51689     2.08170    -0.73765
H     -3.16055     1.83425     0.13040
O     -2.48323    -0.70657    -0.59428
H     -2.57091     0.10405    -1.15305
O     -1.78284    -1.64284    -1.43297
H     -0.95454    -1.14234    -1.61131
O     -0.83084    -3.20247     0.59762
H     -1.30926    -2.98112    -0.22145
O      0.43250    -2.59726     0.30470
H      0.83570    -2.55169     1.18080
O      0.43982    -0.22459    -1.50499
H      0.58161     0.72611    -1.27469
O      0.81476    -0.24183    -2.87594
H      1.76872    -0.40219    -2.76014
