 28
-1061.644969147879
O      1.63091    -1.92395    -2.30926
H      1.76464    -2.07216    -3.25048
O      1.31320    -0.53563    -2.28276
H      0.33247    -0.55716    -2.14595
O     -0.80580     2.18680     0.44747
H     -0.58549     1.61400     1.21619
O     -0.04567     1.59013    -0.60767
H      0.86579     1.64405    -0.27089
O     -2.92830     1.00006    -0.57783
H     -2.24120     1.61058    -0.23899
O     -3.18878     0.20534     0.58651
H     -1.92782     0.01015    -1.64693
O      1.76294    -1.29754     1.63553
H      2.30594    -0.57164     1.29252
O      0.97360    -1.60971     0.49367
H      1.56157    -2.14090    -0.06333
O     -1.52271     0.10951     3.03595
H     -2.14901     0.31536     2.32455
O     -0.29113     0.56670     2.47676
H      0.22960    -0.24774     2.38097
O     -1.46065    -1.41983    -0.53917
H     -0.58484    -1.31131    -0.12481
O     -1.30021    -0.73007    -1.78224
H     -2.67410    -0.58468     0.33148
O      3.02441     0.29943    -0.38385
H      2.38147     0.07437    -1.09270
O      2.54783     1.57465     0.03261
H      3.21465     2.17430    -0.31585
