 40
-1516.6417668466274
O     -1.13327     4.40241     0.39316
H     -1.32951     3.84280    -0.37187
O      0.02531     3.76474     0.92501
H     -0.32083     3.30209     1.70235
O      0.59398     0.37524     2.35182
H      1.29143     0.84397     1.84505
O     -0.55409     1.20341     2.13443
H     -1.26141     0.56389     2.38045
O      3.30585    -1.67998    -1.09884
H      2.77399    -1.83403    -0.30081
O      3.35526    -0.25148    -1.11962
H      2.75470    -0.04878    -1.86564
O     -2.49204    -0.61385     2.35731
H     -2.60982    -1.19421     1.57295
O     -3.62726     0.23803     2.28050
H     -4.12068    -0.04567     3.05755
O      2.50353     1.43252     0.76934
H      2.98553     0.77222     0.22959
O      1.78220     2.07658    -0.28729
H      1.29178     2.77780     0.18739
O      0.36338     0.29850    -1.66897
H      0.90427     0.90634    -1.10876
O      1.26988     0.04948    -2.74476
H      1.04347    -0.87817    -2.92729
O     -2.25299     1.01096    -0.34781
H     -1.75641     1.36347     0.40957
O     -1.80081     1.84102    -1.42578
H     -1.06215     1.29932    -1.77222
O     -2.15987    -2.25979     0.22054
H     -1.26634    -2.35796     0.61710
O     -1.83906    -1.55124    -0.98069
H     -2.07758    -0.62210    -0.75239
O      0.12914    -2.10359     1.50586
H      0.30101    -1.22688     1.91559
O      1.30505    -2.28630     0.71644
H      0.92768    -2.79847    -0.02573
O      0.25032    -3.11881    -1.58047
H     -0.53674    -2.53667    -1.63073
O      1.07732    -2.65245    -2.65009
H      1.95268    -2.71954    -2.24544
