 36
-1364.9773881437127
O      1.97398     2.38090     1.02491
H      2.44872     1.52193     1.02969
O      1.76170     2.66054     2.40062
H      0.94462     2.17519     2.56898
O     -2.28870    -0.70079    -1.12611
H     -1.87246    -0.46559    -1.97740
O     -1.53357    -1.85161    -0.75028
H     -1.38465    -1.67990     0.20049
O     -1.11259    -0.77409     1.65572
H     -1.86496    -0.14899     1.70036
O     -0.02769     0.15947     1.53862
H      0.77863    -0.39691     1.69333
O      2.34285    -1.02165     1.68211
H      2.43158    -1.91697     1.29660
O      2.88460    -0.15904     0.67734
H      2.37887    -0.42243    -0.11791
O     -3.16649     0.86763     1.15198
H     -3.21750     0.59256     0.22357
O     -3.33943     2.27633     1.07761
H     -2.46140     2.56557     0.78911
O     -0.44717     2.80987    -0.00807
H      0.47178     2.81840     0.35000
O     -0.43778     1.53401    -0.65731
H     -0.27785     0.93312     0.10769
O      0.94383    -1.93995    -1.75366
H      0.01976    -1.85450    -1.42448
O      1.48414    -0.63892    -1.54902
H      1.17745    -0.15429    -2.33708
O     -0.09105     0.97797    -3.18042
H     -0.31973     1.32950    -2.28975
O     -1.22146     0.15050    -3.42973
H     -1.68764     0.64035    -4.11326
O      0.59508    -3.23128     1.02586
H      0.40098    -4.15049     1.23652
O      1.86106    -3.34374     0.36951
H      1.62471    -2.99648    -0.51495
