 32
-1213.3086334811512
O      2.16692     1.29366     2.28960
H      1.33350     1.50630     1.82377
O      2.96837     0.73405     1.24074
H      3.07686     1.46494     0.61448
O     -2.68181    -1.48282    -1.61563
H     -3.05788    -2.24840    -2.05915
O     -2.14585    -2.09020    -0.44407
H     -1.24078    -1.71022    -0.40925
O     -0.79993     1.23728    -2.78326
H     -0.98084     1.41365    -1.83515
O     -0.65194    -0.17966    -2.81119
H     -1.50260    -0.50197    -2.46463
O     -1.07132     1.75314    -0.19456
H     -1.55157     1.09487     0.35851
O      0.17978     1.82490     0.49437
H      0.77533     1.78816    -0.27885
O      1.79640     1.82623    -1.59946
H      1.26554     1.73899    -2.41138
O      2.94420     1.00761    -1.82369
H      2.65512     0.15473    -1.46228
O      1.17197    -1.41252    -1.30259
H      0.65603    -0.98401    -2.01187
O      0.29299    -1.12341    -0.21029
H      0.89141    -1.06101     0.55279
O      1.09120    -1.32783     2.55567
H      1.65161    -0.61936     2.90895
O     -0.14867    -1.04413     3.19535
H     -0.32043    -1.85886     3.67872
O     -3.10808    -0.82742     1.76924
H     -3.00596    -1.40735     0.99893
O     -1.99021     0.03150     1.55232
H     -1.34413    -0.30460     2.20064
