 36
-1364.973257081401
O      3.20706    -1.17360     2.19735
H      2.30851    -0.99583     2.53279
O      3.25435    -0.14528     1.20208
H      4.19487     0.05294     1.15071
O      1.95414    -1.02316    -1.64255
H      1.08806    -0.97937    -2.10439
O      1.59007    -1.52115    -0.34485
H      2.27738    -1.09171     0.21114
O     -0.25742     2.11206     2.31580
H     -0.83473     2.10329     1.52493
O      0.71773     3.09029     1.96747
H      0.61657     3.70732     2.69782
O     -1.11484    -1.78640    -3.23401
H     -1.08715    -2.27023    -2.39506
O     -0.34482    -0.62863    -2.92434
H     -0.97786    -0.03743    -2.48710
O     -0.42467    -1.06838     3.18758
H     -0.77207    -1.56067     2.43366
O      0.67752    -0.41414     2.56003
H      0.39047     0.52024     2.55940
O     -3.57032    -0.71899    -1.80456
H     -4.07039    -0.67601    -2.62866
O     -4.21481     0.25444    -0.97516
H     -3.52859     0.93508    -0.94080
O      1.41729     1.91302    -0.56301
H      1.70415     2.07456     0.34626
O      2.63111     1.56143    -1.21928
H      2.46872     0.61394    -1.39493
O     -1.70888     1.31714     0.17442
H     -1.54048     0.35752     0.29011
O     -1.14586     1.51411    -1.11896
H     -0.19145     1.62183    -0.92143
O     -1.60387    -2.28892    -0.33146
H     -2.40597    -1.83301    -0.62755
O     -0.94630    -1.18228     0.27685
H      0.01312    -1.34307     0.06905
