 36
-1364.9761835016586
O      1.56536     2.91646    -0.51597
H      1.01843     2.53916    -1.21611
O      0.82011     2.52406     0.62868
H      1.52074     2.19937     1.23259
O     -2.88271    -1.17536    -0.80144
H     -2.30036    -0.53733    -0.32634
O     -3.45912    -1.86188     0.31328
H     -4.24400    -2.24091    -0.09307
O      2.29495    -1.40755    -0.55951
H      1.86948    -1.65330     0.28540
O      2.57301    -0.01773    -0.34626
H      1.87214     0.37299    -0.91237
O      0.60062     0.40831    -2.01145
H     -0.31696     0.75383    -2.00680
O      0.44551    -0.80316    -2.74859
H      1.03642    -1.37741    -2.23818
O      2.65270     1.72215     2.37047
H      3.52711     2.12036     2.43095
O      2.94533     0.32946     2.25262
H      2.88546     0.20313     1.27564
O     -1.56964     1.54108     1.12516
H     -0.73419     2.02820     0.98715
O     -1.16615     0.31876     0.50833
H     -0.58747    -0.10995     1.18681
O     -2.04334     2.69142    -1.57138
H     -2.26026     2.40457    -0.67091
O     -1.85236     1.42040    -2.19378
H     -2.46758     1.43683    -2.93414
O      1.00907    -1.96766     1.76269
H      0.22446    -2.45158     1.42805
O      0.36839    -0.83255     2.35437
H      1.11407    -0.43129     2.82806
O     -1.05961    -3.07358     0.52025
H     -1.97300    -2.73111     0.50168
O     -0.68369    -3.12982    -0.85535
H     -1.20357    -2.40638    -1.24039
