 32
-1213.3033684824388
O      1.17177    -0.61510    -2.10477
H      2.03739    -0.95092    -2.36392
O      0.33546    -1.74357    -2.39335
H     -0.52271    -1.30488    -2.48204
O     -0.84617    -1.66957     1.41611
H     -0.43433    -2.38246     0.87452
O      0.15607    -0.63852     1.37093
H     -0.36598     0.14923     1.64837
O      1.47960    -3.97670    -0.16703
H      1.98214    -3.17747     0.05590
O      0.16708    -3.44149    -0.31792
H      0.26774    -2.92154    -1.13971
O     -1.79574     3.55516     0.73934
H     -2.21019     4.41424     0.86291
O     -0.45879     3.81483     1.19708
H      0.02141     3.16310     0.64282
O      3.24897    -0.33796     0.16360
H      3.83541    -0.30905     0.92536
O      2.47240    -1.49142     0.44011
H      1.63099    -1.08860     0.75670
O      0.52944     1.84201    -0.23154
H      0.01424     1.60717    -1.02276
O      1.82066     2.14849    -0.74603
H      2.29567     1.35386    -0.46970
O     -1.89256    -0.48444    -1.09562
H     -1.26951    -0.51412    -0.34902
O     -1.76608     0.84069    -1.60293
H     -2.42374     1.33193    -1.09686
O     -2.97374     0.59920     1.60767
H     -2.74601    -0.33559     1.70409
O     -1.69581     1.18344     1.92440
H     -1.79747     2.10173     1.60496
