 32
-1213.3115654873025
O      0.76249    -0.43175     1.86967
H      0.38244    -1.30013     1.63870
O      1.75864    -0.26809     0.85174
H      2.16351     0.58834     1.12869
O     -3.07777    -2.01595    -1.97269
H     -2.89731    -2.91422    -1.67496
O     -2.21765    -1.85388    -3.09686
H     -1.49984    -1.32718    -2.71243
O     -2.72152     0.22591    -0.55692
H     -2.97228    -0.60263    -1.00857
O     -1.82903    -0.28605     0.43944
H     -1.58474     0.55392     0.90475
O      0.35763     2.67842    -0.98884
H      0.02693     3.06313    -1.80575
O      1.32359     1.72735    -1.44193
H      0.80415     0.88872    -1.47062
O      2.74686     2.03950     1.64046
H      2.01422     2.57021     1.99008
O      3.27594     2.83617     0.57905
H      2.84197     2.42972    -0.18284
O      0.89086    -1.59392    -1.23047
H      1.40335    -1.19255    -0.49975
O     -0.05961    -0.54503    -1.42830
H     -0.65487    -0.57559    -0.63172
O      0.00374     2.05120     2.38820
H      0.23468     1.10487     2.40600
O     -0.90069     2.02532     1.28709
H     -0.36256     2.35766     0.54562
O     -0.57375    -3.44548     0.09087
H     -0.01544    -2.93933    -0.53392
O     -0.13351    -2.90725     1.33456
H      0.35363    -3.64504     1.71474
