 40
-1516.639894286046
O      0.59153     2.58060     0.99105
H      0.96669     1.67139     0.85375
O      1.50462     3.40955     0.28383
H      1.05627     3.50173    -0.56923
O      1.26153    -0.92796    -2.80572
H      1.18110    -1.68170    -2.19285
O      1.54645     0.08651    -1.84435
H      1.04814     0.85615    -2.19679
O     -0.50808     1.17068     3.28205
H      0.10537     1.79535     2.85458
O     -1.77290     1.68971     2.87970
H     -2.11557     2.04913     3.70545
O      2.59544    -0.18069     1.40482
H      2.51420    -1.13751     1.54153
O      1.31467     0.06483     0.82561
H      1.44448    -0.14588    -0.12959
O     -1.98336     0.48881    -0.30748
H     -2.02998     0.12518     0.59610
O     -2.04839     1.90145    -0.14047
H     -1.38523     2.04039     0.55616
O     -0.35917    -1.48176     2.52693
H     -0.29258    -0.53338     2.74385
O     -1.54029    -1.52639     1.72966
H     -1.22252    -1.97830     0.92283
O     -0.02890     1.96420    -2.91162
H     -0.84760     1.51823    -3.20455
O     -0.49095     3.05417    -2.10909
H     -1.06935     2.62066    -1.45831
O     -0.84987    -2.43838    -0.69492
H     -1.12123    -1.99768    -1.52940
O      0.54050    -2.68125    -0.94125
H      0.82520    -3.06095    -0.08839
O      2.54798    -2.85862     1.80233
H      2.82512    -3.31704     2.60050
O      1.23124    -3.35718     1.60363
H      0.69208    -2.65888     2.04889
O     -1.42372    -1.15334    -3.02413
H     -0.51589    -0.93259    -3.29672
O     -2.03557     0.13723    -2.95781
H     -2.17671     0.20954    -1.99704
