 24
-909.9784077570403
O      0.16055    -2.00900    -1.12888
H      0.28081    -1.98344    -0.15376
O     -1.22230    -2.30393    -1.29443
H     -1.63129    -1.90776    -0.50900
O     -1.57166     0.00934     2.02982
H     -1.26863     0.92948     1.89686
O     -2.08602    -0.37439     0.75120
H     -1.69031     0.27675     0.12842
O      2.72531    -0.03527    -0.74744
H      3.16546     0.81708    -0.68940
O      1.63073     0.28628    -1.61313
H      1.23336    -0.59274    -1.71633
O     -1.31524     0.57023    -2.31766
H     -1.18401    -0.36249    -2.08715
O     -1.05853     1.21198    -1.06922
H     -0.09505     1.36449    -1.07414
O      1.46998    -0.52686     1.59117
H      2.00833    -0.67744     0.79566
O      0.49372    -1.56991     1.47624
H     -0.30014    -1.12720     1.85024
O     -0.34238     2.35480     1.49519
H     -0.66396     3.06960     0.93606
O      0.84554     1.96300     0.80109
H      1.00682     1.08218     1.18977
