 36
-1364.9732337455955
O     -0.25741     1.24160     2.65607
H     -1.11740     0.87949     2.36339
O     -0.64217     2.15935     3.66521
H     -0.63942     2.99018     3.16956
O     -2.18589     0.62986    -0.14119
H     -2.06133    -0.34553    -0.02979
O     -2.47581     1.05718     1.18962
H     -2.46855     2.02726     1.06768
O      0.88749    -1.46111     3.10190
H      0.69636    -0.56447     3.39958
O      0.61715    -1.28620     1.71416
H      1.46760    -1.49859     1.27163
O      0.04432     1.96383    -0.54497
H     -0.76995     1.41604    -0.42911
O      0.98709     1.25965     0.26257
H      0.60258     1.31504     1.16143
O     -1.43161    -1.88370     0.16654
H     -0.76623    -1.77077     0.88022
O     -0.59398    -2.33213    -0.90970
H     -0.51837    -1.49498    -1.41547
O     -2.10510     3.69784     1.00228
H     -2.45288     4.40221     0.44560
O     -0.71126     3.99929     1.07595
H     -0.34905     3.38565     0.40265
O     -0.32612    -0.23019    -2.44672
H      0.15099     0.56851    -2.17342
O      0.27311    -0.49779    -3.72307
H      0.33581    -1.46664    -3.68721
O      2.23050    -2.94666    -2.67250
H      2.33930    -1.98643    -2.70873
O      0.93989    -3.10933    -3.26496
H      0.38625    -3.26702    -2.48456
O      2.27491    -0.70499    -1.05077
H      1.81373    -0.03007    -0.51648
O      2.54198    -1.72334    -0.07332
H      2.32436    -2.51257    -0.59151
