 32
-1213.3123848129458
O      2.52290    -1.13827    -0.89551
H      1.88610    -1.76807    -0.48856
O      2.35579    -1.40823    -2.28623
H      3.26972    -1.37873    -2.58065
O      0.07486     1.40637     2.99064
H     -0.24385     2.05332     2.32750
O     -0.89644     0.36892     2.84118
H     -0.42438    -0.28152     2.28876
O     -1.99408    -1.35707    -1.92485
H     -1.31239    -0.89905    -2.44489
O     -1.43661    -2.66914    -1.84308
H     -2.23758    -3.19921    -1.82477
O     -0.76113     2.73336     0.82766
H     -1.43213     2.10787     0.46915
O      0.25977     2.64742    -0.17374
H      0.99150     2.21872     0.31959
O      2.36338     0.42673     1.92174
H      1.63111     0.83153     2.42405
O      2.20656     1.06904     0.65398
H      2.39078     0.32561     0.05164
O      0.15523     0.29339    -1.26255
H      0.08977     1.27284    -1.13475
O      0.15298     0.10956    -2.67801
H      0.97437    -0.40209    -2.73101
O      0.08390    -1.24356     0.85685
H      0.08889    -0.59269     0.12515
O      0.44109    -2.42362     0.13850
H     -0.29862    -2.53065    -0.48974
O     -3.12313     0.57241     1.20185
H     -2.40788     0.53963     1.86360
O     -2.38472     0.83236     0.01186
H     -2.34058    -0.03823    -0.41571
