 20
-758.3012614653223
O     -0.56457    -0.14453     1.29192
H     -0.08664     0.05343     0.45694
O     -1.89919     0.26757     0.96764
H     -1.80558     1.22655     1.08631
O      2.19208    -1.28464    -1.92964
H      3.09609    -1.53825    -1.71968
O      1.44532    -2.26123    -1.19163
H      0.54544    -2.02913    -1.48516
O     -1.08523     2.65898     1.93108
H     -1.54483     2.89482     2.74414
O      0.15294     2.14704     2.44231
H      0.00189     1.19202     2.29627
O      0.94047     0.73699    -0.72998
H      1.46078     0.06617    -1.21923
O      1.97724     1.41471    -0.00968
H      1.45094     1.89574     0.64180
O     -0.97371    -1.32950    -1.85995
H     -1.44691    -1.40825    -2.69551
O     -1.89005    -1.91779    -0.92962
H     -2.02219    -1.16581    -0.33213
