 36
-1364.9789697968354
O      1.34158    -0.23879     0.36960
H      0.42508    -0.07647     0.02937
O      1.76879     1.07806     0.71739
H      1.03811     1.33359     1.32648
O     -1.19645    -1.42364    -0.74542
H     -0.54054    -1.51741    -1.46591
O     -1.11085    -0.01393    -0.55769
H     -1.88520     0.17084     0.02689
O     -0.31855     0.12911     3.23758
H     -0.48619    -0.66577     2.69954
O     -0.35065     1.16323     2.24869
H     -1.19047     1.62066     2.41199
O     -0.56678    -2.17003     1.74345
H     -0.85686    -1.99228     0.82255
O      0.79944    -2.54652     1.53638
H      1.19048    -1.68892     1.26936
O     -0.39500     3.54719     0.39603
H      0.22892     3.88916    -0.26071
O     -1.38975     2.93923    -0.43633
H     -0.84184     2.42803    -1.07307
O     -3.22713     0.64001     0.86696
H     -4.16346     0.64068     0.64404
O     -3.03602     1.94504     1.42007
H     -2.54087     2.37130     0.68882
O      1.95961    -0.40569    -2.37673
H      2.23968    -0.35882    -1.44855
O      0.95409    -1.42546    -2.30900
H      1.46075    -2.23298    -2.08369
O      0.56250     1.95611    -1.99522
H      0.97514     1.15708    -2.37908
O      1.67864     2.67542    -1.44602
H      1.80386     2.18624    -0.60801
O      1.97709    -3.68890    -1.29444
H      2.15320    -4.56974    -1.63835
O      0.65053    -3.84204    -0.78602
H      0.76233    -3.51430     0.13382
