 40
-1516.6470625677546
O      1.60765    -1.31487    -2.00745
H      0.77017    -1.70578    -2.34174
O      1.09434    -0.10978    -1.45950
H      1.04288    -0.27280    -0.49204
O      3.40950    -2.81550     0.21230
H      4.22426    -3.26699    -0.02618
O      3.63305    -1.49427    -0.27292
H      2.99869    -1.46272    -1.01947
O     -0.96702     1.57053     3.06659
H     -1.31279     1.55297     3.96457
O      0.10467     2.50518     3.18499
H      0.78029     2.05750     2.64506
O      0.56326     2.72811    -0.60188
H     -0.28920     2.91523    -0.15092
O      0.14062     2.30665    -1.89744
H      0.50776     1.40298    -1.92331
O     -1.43193    -2.66333    -1.36387
H     -0.60432    -3.09508    -1.05959
O     -0.93313    -1.87478    -2.44826
H     -1.44973    -1.05226    -2.36925
O      1.63223     0.07326     1.11237
H      2.52969    -0.28783     1.01385
O      1.88655     1.45901     1.34983
H      1.52677     1.86297     0.53239
O     -2.76857     2.57752     0.79235
H     -2.80149     2.44527    -0.17536
O     -1.52659     3.28943     0.91806
H     -1.36735     3.22724     1.87025
O      0.28156    -3.54079     1.09787
H     -0.12718    -2.66926     1.21628
O      0.82234    -3.43416    -0.21287
H      1.77194    -3.26274    -0.03939
O     -1.34007    -0.15318     0.67292
H     -1.35892     0.36855     1.49929
O     -1.90150    -1.41107     1.04464
H     -1.96620    -1.82782     0.16552
O     -2.21358     0.45429    -1.72364
H     -1.94884     0.37277    -0.78511
O     -2.46875     1.85479    -1.80370
H     -1.57257     2.18050    -2.02344
