 36
-1364.9713729815394
O      0.48445     2.74615     1.07882
H     -0.42974     2.58910     1.36381
O      1.23478     2.08821     2.09946
H      0.78253     1.22315     2.15645
O     -2.83562     0.26169    -1.53258
H     -3.44478     0.26567    -2.27583
O     -2.50946     1.65086    -1.43929
H     -1.53374     1.60488    -1.51183
O      3.04531     0.51889     0.59425
H      2.88911     1.33741     1.08857
O      2.93317    -0.45103     1.65166
H      3.51764    -1.13146     1.29843
O      0.73823     1.24109    -2.42966
H      0.64340     0.33465    -2.77129
O      0.07183     1.06655    -1.17555
H      0.63135     1.55967    -0.55323
O     -0.18151    -0.11914     1.82326
H      0.18934    -0.77965     1.20722
O     -1.47242    -0.67232     2.11784
H     -2.04745     0.06019     1.85014
O     -3.71569     2.43484     2.01289
H     -3.51945     3.32017     2.33521
O     -2.47690     2.09036     1.38762
H     -2.70711     2.07045     0.43922
O     -0.76028    -1.84066    -2.17427
H     -1.21309    -1.00255    -1.98652
O      0.35718    -1.41174    -2.95951
H      1.11525    -1.70202    -2.41932
O      0.11490    -2.49373     0.26799
H     -0.26433    -2.43094    -0.63706
O     -0.68989    -3.48231     0.90492
H     -1.21641    -2.91598     1.48474
O      2.99272    -2.41696    -0.34828
H      2.15422    -2.70926     0.03811
O      2.53766    -1.54265    -1.37857
H      2.63528    -0.66371    -0.97482
