 36
-1364.9673529021138
O      1.25542     0.96260     2.95150
H      1.38002     0.06251     2.61207
O     -0.14715     1.03074     3.17797
H     -0.43546     1.56626     2.42496
O     -1.90636    -1.28498     0.70636
H     -2.08164    -0.38701     0.36958
O     -0.71126    -1.12380     1.47013
H     -1.00626    -0.66957     2.27708
O      2.67022     1.99297     0.66740
H      2.41644     1.77207     1.58013
O      4.06696     1.73102     0.66162
H      4.41248     2.61357     0.50598
O     -0.97458     1.49364     0.42079
H     -0.21621     1.10074    -0.06595
O     -1.21993     2.67181    -0.33724
H     -2.13141     2.50560    -0.61396
O     -3.69939     1.43290    -1.61413
H     -2.95199     0.98485    -2.05487
O     -3.93898     0.50584    -0.55228
H     -4.78674     0.12583    -0.80400
O      1.08998     0.72516    -1.07335
H      1.78645     1.22704    -0.60186
O      1.69437    -0.57372    -1.16993
H      0.91035    -1.17008    -1.25698
O     -1.40109     0.28325    -2.37014
H     -0.54088     0.72633    -2.43393
O     -1.40558    -0.61503    -3.48278
H     -1.21582    -1.44931    -3.02852
O      2.11271    -2.40680     1.41748
H      2.93282    -2.90954     1.41104
O      2.59196    -1.06943     1.30010
H      2.39497    -0.86129     0.35684
O      0.22791    -3.46102    -0.65947
H      0.70076    -3.10012     0.10505
O     -0.34936    -2.28072    -1.20846
H     -1.05927    -2.05045    -0.56334
