 28
-1061.6437191571888
O      1.31697    -0.96224    -0.63780
H      1.98072    -0.53678    -0.06253
O      1.49831    -0.19518    -1.82604
H      0.95753    -0.69907    -2.47310
O     -0.15539     0.91585     2.42426
H     -1.07240     0.57068     2.43199
O      0.58821    -0.30708     2.29503
H      1.42909    -0.02768     2.67885
O      0.49886     2.29093     0.24417
H      0.09937     1.85255     1.02188
O     -0.16423     1.62695    -0.83695
H     -0.02000    -1.78033    -4.46546
O     -1.21367    -1.38248     0.07540
H     -0.24857    -1.29205    -0.06427
O     -1.75211    -0.53870    -0.94368
H     -1.29936     0.31593    -0.77820
O     -2.60120    -0.13723     2.01982
H     -2.32505    -0.68316     1.25485
O     -3.30765     0.93009     1.38516
H     -4.18653     0.81035     1.75714
O     -0.89092    -2.18835    -2.85259
H     -1.26892    -1.56459    -2.19934
O     -0.12489    -1.27522    -3.65504
H      0.56673     1.09841    -1.21632
O      2.91340     1.22213     1.61685
H      2.26810     1.69021     1.06368
O      3.27053     0.13678     0.77037
H      4.17089     0.34710     0.49462
