 28
-1061.6429330161634
O      0.86924     0.26150    -2.15642
H      0.42612    -0.48683    -1.72308
O      1.68921     0.76288    -1.09703
H      1.04556     1.07805    -0.42851
O      0.68071    -1.48804     1.92609
H      0.27002    -1.54313     1.03814
O      1.69083    -0.48630     1.75059
H      2.36690    -0.96765     1.24423
O     -0.85270     0.41588     2.94221
H     -0.25118    -0.35454     2.82711
O     -2.13874    -0.19749     2.93640
H     -0.45352     1.35378     1.48853
O     -1.21287     1.70143    -3.08942
H     -0.36692     1.29691    -2.82689
O     -1.18409     2.88262    -2.28239
H     -1.72802     3.48371    -2.79860
O     -1.89924    -1.95977     0.23443
H     -2.08005    -1.60660     1.11481
O     -0.86484    -1.10303    -0.22832
H     -1.24540    -0.19109    -0.15554
O     -1.50397     1.45892    -0.06463
H     -1.42335     2.05809    -0.84127
O     -0.24526     1.66689     0.58943
H     -2.39585    -0.12173     3.85803
O      3.01728    -1.52040    -0.52157
H      2.62737    -0.70181    -0.89095
O      2.04124    -2.48611    -0.91578
H      2.56834    -3.06685    -1.47482
