 24
-909.9730921177925
O     -1.00822     1.52248    -0.53456
H     -1.53652     0.74423    -0.79851
O     -1.25051     1.57678     0.86718
H     -0.35319     1.47072     1.21075
O      0.56556    -1.13680    -1.04125
H      1.00686    -0.34256    -1.42508
O      1.14394    -1.18354     0.27303
H      0.35141    -1.26042     0.84462
O      1.07389     2.12241    -2.11182
H      0.34026     1.93213    -1.49653
O      1.88514     0.95367    -1.96122
H      2.47322     1.20947    -1.23379
O     -2.00007    -1.78946    -0.83108
H     -1.04020    -1.65673    -0.99178
O     -2.50072    -0.53814    -1.29552
H     -2.80119    -0.74788    -2.18461
O     -1.06926    -1.31998     1.80252
H     -1.81151    -1.30350     1.17397
O     -1.16745    -2.65116     2.30572
H     -1.34303    -2.48040     3.23621
O      1.69910     1.58060     1.77395
H      2.21029     2.35300     2.03398
O      2.55239     1.01100     0.77391
H      2.11074     0.14369     0.66317
