 24
-909.9791359444198
O     -2.39769     0.58762     1.16948
H     -2.41452     0.07097     0.34602
O     -2.52189    -0.39444     2.19677
H     -1.59195    -0.60459     2.36917
O      2.11810    -1.19256    -2.25762
H      1.94760    -1.55387    -1.37139
O      0.99780    -1.68150    -2.98463
H      1.36951    -2.41045    -3.49174
O      1.50175    -1.39006     0.61151
H      1.78791    -0.46040     0.57867
O      0.16710    -1.21651     1.11992
H     -0.35827    -1.28668     0.29625
O     -1.47122    -0.02254    -1.49741
H     -0.66037     0.48272    -1.29899
O     -1.03655    -1.36526    -1.25917
H     -0.39139    -1.49546    -1.97735
O      1.66632     1.19649    -0.06343
H      1.04316     1.64541     0.54732
O      0.89796     1.21216    -1.27637
H      1.47481     0.69484    -1.85741
O      0.01604     2.24046     2.84738
H     -0.18501     3.16031     3.04047
O     -0.27870     2.19124     1.45173
H     -1.08216     1.62073     1.42965
