 32
-1213.3067890705333
O      2.19930    -0.41624     2.23218
H      2.82041    -0.18622     1.52187
O      2.29650     0.68648     3.13000
H      1.65694     1.30129     2.74146
O      0.83754    -1.31485    -0.41063
H      0.21458    -1.54490     0.32451
O      0.89089    -2.49868    -1.21667
H      0.35833    -2.18815    -1.97031
O     -2.73481     1.26916    -2.16106
H     -2.23602     1.24151    -2.98648
O     -2.01004     0.34235    -1.36881
H     -1.33689     0.91741    -0.93467
O      0.69385     1.57398     0.69059
H      1.29018     1.38465    -0.06321
O     -0.50859     1.98422     0.03015
H     -1.12319     2.04852     0.78087
O     -0.62050    -1.16056    -3.04964
H     -1.28061    -0.81619    -2.41711
O      0.05329     0.06265    -3.37577
H      0.77470     0.08247    -2.73266
O      3.04289     0.00529    -0.51450
H      2.32839    -0.67469    -0.50742
O      2.37097     0.99309    -1.29228
H      3.10631     1.49462    -1.65770
O     -0.76596    -1.81067     1.65009
H     -1.73176    -1.71303     1.63370
O     -0.42909    -0.73930     2.55610
H      0.54748    -0.70781     2.45302
O     -2.39230     0.94062     1.86336
H     -1.65850     0.51971     2.34560
O     -2.98617    -0.24760     1.30639
H     -2.89987    -0.07924     0.35764
