 32
-1213.3054449281367
O      1.32528     0.69042     1.89687
H      0.99895     0.80881     0.98402
O      2.68485     0.30937     1.70765
H      3.13805     1.10773     1.99650
O     -0.13493    -1.85477     0.16455
H     -0.11478    -1.91831     1.13851
O     -1.52851    -1.66516    -0.11273
H     -1.50179    -0.76202    -0.48853
O      1.02345     2.82430    -2.53526
H      1.35406     2.12973    -1.92678
O     -0.24630     2.23215    -2.86140
H     -0.63301     2.90501    -3.42844
O     -1.39691     0.91341    -0.77988
H     -0.96839     1.48258    -1.44585
O     -1.01228     1.55106     0.44263
H     -1.60896     1.10802     1.06614
O      0.44977    -0.59165    -3.93025
H      0.23136     0.34160    -3.83254
O      0.17671    -1.01272    -2.58522
H      0.00019    -1.95594    -2.68092
O      1.54476     0.66877    -1.06733
H      1.12734    -0.09708    -1.52519
O      2.92011     0.27318    -1.02689
H      2.97497     0.05315    -0.08703
O     -0.20304    -2.14159     2.87646
H     -1.15023    -2.34217     2.91520
O     -0.22355    -0.82533     3.44608
H      0.42540    -0.36047     2.88379
O     -2.52731    -0.02199     2.39139
H     -1.75503    -0.12171     2.98041
O     -2.81800    -1.41549     2.18816
H     -2.47519    -1.55137     1.28079
