 36
-1364.9807088839593
O      1.92587     2.74296     0.38995
H      1.00064     3.03318     0.40391
O      1.94867     1.75484     1.41885
H      2.26060     0.96063     0.94100
O     -3.21071    -1.03343     1.19253
H     -2.83045    -0.28620     1.67584
O     -2.05397    -1.56660     0.55509
H     -2.09446    -1.14197    -0.33326
O     -1.70493     2.20283    -0.60424
H     -1.48084     1.88086     0.29105
O     -0.71300     3.21453    -0.77432
H     -0.23324     2.85216    -1.54426
O      0.71978     1.81883    -2.52535
H      0.28369     0.94274    -2.56504
O      1.97181     1.44588    -1.95205
H      2.05446     2.07909    -1.21454
O     -0.53839    -0.48548    -2.26198
H     -0.39636    -1.41983    -1.98498
O     -1.84497    -0.24632    -1.73722
H     -1.80666     0.70420    -1.49098
O      2.05121    -1.05144    -0.99440
H      2.06663    -0.17124    -1.42856
O      2.37187    -0.70932     0.35423
H      1.73098    -1.27487     0.83142
O     -1.35028     0.65485     2.82303
H     -0.82515    -0.16268     2.86821
O     -0.71945     1.29102     1.71496
H      0.21576     1.39665     1.97878
O      0.91530    -3.50226    -1.03254
H      1.43198    -2.67677    -1.06216
O     -0.37132    -2.95994    -1.34907
H     -0.94698    -3.35952    -0.68566
O      0.36997    -2.03482     1.54592
H     -0.53159    -1.84321     1.18976
O      0.27303    -1.50253     2.85910
H      0.22265    -2.29754     3.39651
