 36
-1364.9760496607082
O     -1.15404     0.00140     2.56044
H     -1.18890    -0.52175     1.72833
O     -1.22097     1.33735     2.05174
H     -0.28127     1.51189     1.85702
O      1.14057    -1.46449     3.34980
H      0.33574    -0.92357     3.39556
O      0.83331    -2.22444     2.17216
H      0.96732    -3.13821     2.45829
O      1.24225     1.57434     0.98678
H      1.49672     0.68998     0.61693
O      1.13467     2.37353    -0.18349
H      1.94397     2.89111    -0.14281
O     -1.23530     3.44952    -3.16012
H     -1.35190     3.65882    -2.21626
O      0.08443     2.89701    -3.12175
H      0.46006     3.22091    -3.94508
O     -0.15358     0.45121    -1.97889
H     -0.06916     1.26663    -2.51007
O     -1.57044     0.25521    -1.92365
H     -1.88091     1.05252    -1.44631
O     -1.36087     3.37674    -0.41230
H     -0.49928     2.94914    -0.25456
O     -2.27863     2.29287    -0.24097
H     -2.06515     1.97106     0.65984
O      1.13525    -4.05889    -0.21770
H      1.42783    -3.22331    -0.63626
O      2.19655    -4.26496     0.71253
H      2.57638    -5.08788     0.38763
O      1.93373    -0.86433     0.16889
H      1.55114    -1.43649     0.86923
O      1.43863    -1.48928    -1.01853
H      0.86192    -0.78492    -1.38628
O     -1.55413    -2.59425     0.03748
H     -0.71069    -3.06380     0.06176
O     -1.09613    -1.25897     0.22517
H     -1.34185    -0.80199    -0.61234
