 36
-1364.978134081004
O      1.33833     1.36754    -0.14252
H      1.36695     1.91860    -0.96369
O      2.65636     1.59804     0.36444
H      2.58923     1.06794     1.17941
O     -1.69159    -0.63742    -1.50380
H     -0.80924    -1.03574    -1.33674
O     -1.41824     0.74159    -1.24874
H     -1.25632     0.75879    -0.28100
O      0.87316     0.09205     2.96289
H      0.93131    -0.44344     3.76036
O      2.05743    -0.25363     2.25280
H      1.71339    -0.93657     1.63129
O      3.60779     0.01641    -1.55163
H      3.39441     0.70791    -0.89784
O      3.80722     0.80893    -2.73220
H      3.83888     0.12083    -3.40344
O     -1.67207    -2.39423     1.15665
H     -2.55665    -2.18521     0.80817
O     -1.79319    -2.06824     2.54740
H     -1.94949    -1.10340     2.51430
O     -1.10644     0.92309     1.39750
H     -0.37314     0.61608     1.97062
O     -2.24559     0.56611     2.17174
H     -2.94511     0.53915     1.49466
O      1.59884     2.35685    -2.54816
H      2.42230     1.87716    -2.77308
O      0.64719     1.70175    -3.38691
H     -0.02482     1.43286    -2.74344
O     -3.87524    -1.26148    -0.07908
H     -3.27749    -0.98168    -0.80142
O     -4.25394     0.00862     0.44534
H     -5.19104    -0.12687     0.60597
O      0.78403    -1.17343    -0.75787
H      1.05507    -0.25636    -0.53026
O      0.85446    -1.83746     0.50468
H     -0.08700    -2.05433     0.69662
