 24
-909.9789727407784
O     -2.36201    -1.80498     0.87071
H     -3.29892    -2.01504     0.92985
O     -2.16078    -0.94635     1.98989
H     -2.01821    -0.08790     1.53044
O      0.10260    -1.85558    -1.41089
H      0.61568    -1.67798    -0.59985
O     -0.99476    -0.95113    -1.26914
H     -1.46263    -1.29093    -0.47555
O      2.33687     0.95761    -0.19502
H      1.66538     1.20240    -0.86516
O      3.35349     0.38621    -1.01788
H      4.10353     0.94111    -0.78446
O      0.35925     1.14207    -2.04778
H     -0.14092     0.30912    -1.85280
O     -0.60849     2.13716    -1.70651
H     -1.00350     2.33779    -2.55869
O      1.38975    -1.27414     0.94429
H      1.85017    -0.46827     0.62391
O      0.72879    -0.73613     2.09345
H     -0.08568    -1.25678     2.12655
O     -0.32649     1.66565     1.46733
H      0.12609     0.82355     1.65298
O     -1.42957     1.22607     0.66799
H     -1.19740     1.61258    -0.20080
