 24
-909.969071670874
O      0.51993    -2.05846     0.68868
H     -0.22427    -1.56104     0.30317
O      0.34811    -1.83535     2.08824
H     -0.20704    -2.57726     2.34905
O      0.50485    -1.08337    -2.43161
H      1.37956    -1.18445    -2.01430
O     -0.16051    -0.30920    -1.42814
H     -0.64098     0.35152    -1.95108
O      2.97901    -1.45685    -1.35189
H      3.72613    -0.96429    -1.70362
O      2.89681    -0.90847    -0.02725
H      2.07095    -1.33162     0.26510
O     -1.75538     2.00279    -1.35366
H     -1.18869     2.24064    -0.58605
O     -2.81176     1.31512    -0.68465
H     -3.52733     1.95838    -0.71255
O     -1.89387    -0.44675     1.11775
H     -2.19730     0.27072     0.53381
O     -1.28534     0.29299     2.19244
H     -0.52424    -0.29129     2.33681
O      1.07690     1.71651     0.50295
H      0.85375     1.08761    -0.20130
O     -0.19104     2.30534     0.78720
H     -0.55730     1.70406     1.47104
