 16
-606.635550637032
O     -1.22480     0.96052     0.88892
H     -0.99848     1.22725    -0.03071
O     -1.25788     2.23071     1.54573
H     -2.18389     2.27145     1.80186
O      0.88417    -0.62723     1.56506
H      0.11013    -0.02944     1.55724
O      0.33249    -1.83442     2.10377
H      0.07922    -2.30085     1.29806
O     -0.34781     0.64490    -2.40585
H      0.20471     0.02428    -1.89382
O     -0.43404     1.76518    -1.51871
H      0.38630     2.24337    -1.68001
O      0.28370    -2.05200    -1.12860
H      0.47804    -2.43024    -1.99127
O      1.29732    -1.04162    -1.04632
H      1.27638    -0.86511    -0.07917
