 24
-909.9783542868088
O     -1.04687    -1.27410     0.50439
H     -0.69648    -1.30811     1.41074
O     -2.44258    -1.53214     0.67179
H     -2.79009    -0.68855     0.34738
O      0.15780     0.39637    -2.11031
H     -0.81760     0.41324    -2.09235
O      0.47222    -0.91953    -1.64288
H     -0.12028    -1.03655    -0.87010
O      2.96717    -0.14513     0.32850
H      3.60314     0.47137    -0.04697
O      2.96208    -1.22039    -0.60593
H      2.13341    -1.05597    -1.09993
O     -2.48403     0.78878    -1.85208
H     -2.94632     1.53183    -2.25059
O     -2.71560     1.00073    -0.46618
H     -1.83017     1.30473    -0.16373
O      0.98621    -0.04461     2.08075
H      1.77583    -0.18444     1.51081
O      0.75523    -1.34570     2.59716
H      0.67261    -1.14882     3.53330
O     -0.37361     1.67684     0.54793
H      0.02941     1.04624     1.17177
O      0.78523     2.13031    -0.16447
H      0.73299     1.55894    -0.95406
