 28
-1061.6457623815197
O     -1.95660    -0.58098     0.81946
H     -1.58766    -0.99477     0.01823
O     -1.11086     0.56195     0.96913
H     -1.32034     1.10071     0.16676
O      1.24613     0.02876     2.06260
H      0.36971     0.23565     1.67229
O      1.28607    -1.39276     1.89139
H      0.59766    -1.68471     2.53095
O     -1.81742    -2.38322     2.82546
H     -1.80904    -1.65126     2.17461
O     -0.63678    -2.12029     3.58177
H     -0.56236     2.43880    -1.50982
O      1.08718     2.87951    -1.87573
H      1.33409     3.50268    -2.56477
O      1.61569     1.65789    -2.40251
H      2.08840     1.30899    -1.62245
O     -0.22851    -0.70531    -2.13752
H      0.60770    -0.60200    -1.62665
O     -0.86297    -1.71386    -1.35692
H     -1.31571    -2.21038    -2.04386
O     -1.89313     1.39616    -2.35486
H     -1.26557     0.65386    -2.40539
O     -1.40633     2.06565    -1.19040
H     -0.97670    -1.71570     4.38612
O      2.67079     0.45023    -0.18499
H      2.30402     0.62070     0.70095
O      1.87486    -0.67521    -0.57648
H      1.73202    -1.14981     0.27301
