 16
-606.6424973204618
O     -2.26917     0.52130     0.37318
H     -2.82477     0.29419     1.12540
O     -1.05503     0.88103     1.03568
H     -0.55499     1.26340     0.28504
O      2.27333     0.06162     1.30553
H      2.29274     0.23095     0.35320
O      1.18152    -0.85479     1.41116
H      0.47304    -0.26627     1.71264
O      1.29079     0.64940    -1.36328
H      0.60665    -0.06018    -1.39335
O      0.46497     1.75155    -0.97278
H      0.20843     2.13248    -1.81874
O     -0.74630    -1.01764    -1.22358
H     -1.42763    -0.64012    -0.63864
O     -0.30936    -2.15008    -0.47393
H      0.29972    -1.73445     0.16195
