 36
-1364.974082213434
O      0.93184     2.30200     0.84859
H      1.68267     1.81929     1.23398
O      0.31103     2.89680     1.99605
H      0.02012     2.09088     2.47360
O     -0.55118    -1.66827    -0.60476
H     -1.35460    -1.47385    -1.11558
O     -1.02330    -2.17443     0.64688
H     -1.23555    -1.34451     1.12400
O     -1.57842     0.12039     2.02381
H     -2.01740     0.99715     1.89658
O     -0.42872     0.48273     2.78880
H      0.25352    -0.06853     2.36174
O      1.55157    -0.85176     1.63060
H      1.94169    -1.72968     1.79415
O      2.66344    -0.02794     1.27021
H      2.67096    -0.12991     0.30417
O     -2.53250     2.54854     1.59845
H     -1.77822     3.15765     1.58074
O     -3.00944     2.57784     0.24484
H     -2.32592     2.06084    -0.22306
O     -0.89688     1.30704    -0.82534
H     -0.16156     1.62123    -0.24700
O     -0.58598     1.89075    -2.08725
H      0.28500     1.48172    -2.24137
O      2.11381    -0.77351    -1.60155
H      1.37677    -1.26044    -1.18912
O      1.44634     0.14463    -2.45529
H      0.83025    -0.43350    -2.94830
O     -1.80679    -0.46651    -2.93703
H     -1.52740     0.43518    -2.69779
O     -0.66924    -0.94258    -3.65625
H     -0.94334    -0.83486    -4.57390
O      2.32779    -3.67687    -0.00496
H      2.53987    -4.61001    -0.10451
O      1.54385    -3.68080     1.18117
H      0.67573    -3.42411     0.83586
