 40
-1516.6370208215296
O      3.18454     0.84281    -1.57931
H      3.44126    -0.05529    -1.31073
O      3.80129     1.67811    -0.60209
H      3.17325     1.65604     0.13530
O      0.58410    -0.99077     0.50054
H      0.39331    -0.05337     0.27843
O      0.94096    -0.90941     1.87680
H      0.05503    -0.95129     2.32319
O      0.68678     1.47513    -1.07505
H      1.58315     1.40311    -1.47559
O     -0.17011     1.03596    -2.13890
H      0.02509     0.07279    -2.18676
O     -3.27886     2.24275    -2.22321
H     -3.22710     3.12353    -1.84242
O     -2.63534     1.47176    -1.21448
H     -1.70505     1.39100    -1.54726
O     -0.70503     1.42629     1.29660
H     -0.19154     1.87460     1.99285
O     -2.05761     1.54827     1.71888
H     -2.48679     1.44167     0.85184
O      1.26225     2.24008     2.82307
H      1.61654     2.22863     3.71741
O      2.19322     1.43264     2.10928
H      1.76018     0.54834     2.13087
O     -2.40545    -1.61572     2.72791
H     -2.47000    -1.48577     1.76487
O     -1.41166    -0.64813     3.07732
H     -1.77333     0.18618     2.71107
O     -2.96589    -1.45871    -1.16245
H     -3.05837    -0.54436    -1.47084
O     -2.26503    -1.23119     0.05906
H     -1.38320    -1.61077    -0.10753
O      2.94663    -1.75235    -0.38676
H      2.06625    -1.52897    -0.00807
O      2.57903    -2.51344    -1.54252
H      2.77390    -3.41575    -1.27089
O      0.23209    -1.60638    -2.42155
H      1.10813    -1.94879    -2.14734
O     -0.62234    -2.61549    -1.87816
H     -1.44971    -2.40562    -2.32469
