 32
-1213.3097967802428
O      2.71424     0.34319     2.91726
H      3.52507     0.58013     3.38137
O      3.19449    -0.46613     1.84867
H      3.03301     0.11049     1.08085
O     -1.81610    -1.08558    -1.68410
H     -1.24873    -0.35197    -1.99679
O     -1.05015    -2.24038    -2.05357
H     -0.63776    -2.45769    -1.20786
O      1.71080     1.82250     0.50063
H      1.01353     1.92599    -0.18137
O      0.92487     1.90003     1.70141
H      1.48254     1.36084     2.29048
O     -0.13885     0.94523    -2.25465
H      0.81793     0.73726    -2.21176
O     -0.26919     1.95680    -1.25912
H     -1.06654     1.66110    -0.76844
O      2.45968     0.36509    -2.12993
H      3.13415     1.04786    -2.05806
O      2.81014    -0.50607    -1.05318
H      1.92613    -0.80637    -0.75853
O     -2.12578     1.06467     0.40372
H     -2.94945     0.54301     0.51411
O     -1.24203     0.38783     1.30207
H     -0.60078     1.09769     1.51902
O      0.56844    -1.21052     0.12704
H     -0.18472    -0.71827     0.52594
O      0.98763    -2.04263     1.20592
H      1.77618    -1.56270     1.50516
O     -4.42420    -0.29518     0.51296
H     -5.26286    -0.04603     0.11215
O     -4.21187    -1.61591     0.02072
H     -3.46070    -1.46558    -0.57631
