 20
-758.3036739466194
O      0.75092    -1.64487     1.24300
H      0.62366    -0.89913     1.86214
O     -0.57428    -2.16858     1.14156
H     -1.06832    -1.40530     0.79787
O      2.56538     0.45377     0.00732
H      3.42819     0.13351     0.28978
O      2.09383    -0.60146    -0.83139
H      1.55430    -1.10677    -0.18381
O      0.14037     0.71845     2.34825
H     -0.79641     0.67592     2.12323
O      0.57727     1.63750     1.33914
H      1.32449     1.15393     0.94520
O     -1.77755     0.14575     0.25045
H     -1.11820     0.55281    -0.36552
O     -2.82913    -0.18861    -0.66011
H     -3.48439     0.47854    -0.43045
O     -0.13214     1.00246    -1.64676
H      0.71257     0.54405    -1.80543
O     -0.80595     0.89457    -2.90901
H     -1.49228     0.25133    -2.69199
