 32
-1213.3103980722894
O      1.29032     0.54915     2.26796
H      0.93037    -0.24385     1.81942
O      1.38030     1.47363     1.18013
H      2.17797     1.16544     0.70155
O      0.63870    -1.60560    -2.47565
H      1.41346    -1.55342    -1.89896
O     -0.37003    -1.12696    -1.57705
H     -1.11658    -1.72323    -1.75275
O     -3.36545    -1.13047    -0.64166
H     -4.27408    -1.37515    -0.43709
O     -2.68509    -2.37854    -0.55021
H     -2.14669    -2.24989     0.25833
O     -0.58888     1.56065    -0.58044
H      0.00159     1.65214     0.19788
O     -1.88390     1.45084    -0.00471
H     -2.18941     0.62603    -0.40995
O     -0.95410    -1.84511     1.46545
H     -1.20602    -1.00998     1.93252
O      0.32154    -1.49223     0.92143
H      0.07585    -1.25822    -0.00317
O      2.92112    -1.07531    -0.54249
H      2.59151    -1.23112     0.35151
O      3.14369     0.34016    -0.52866
H      2.62869     0.61985    -1.31920
O      1.70851     2.54029    -2.58392
H      1.78155     2.53103    -3.54174
O      1.37907     1.17686    -2.34148
H      0.52260     1.26203    -1.87139
O     -1.05506     1.39255     3.35346
H     -0.12060     1.22672     3.14433
O     -1.68579     0.48276     2.45374
H     -1.81714     1.04677     1.66458
