 28
-1061.6423570076352
O     -0.18997    -0.37610     2.05503
H     -0.22027    -1.11249     1.40292
O     -0.86361     0.66089     1.32766
H     -1.77704     0.34356     1.24927
O      2.05885     0.87117     3.03938
H      1.25941     0.38571     2.77167
O      3.06671    -0.02656     2.55339
H      3.85080     0.52923     2.58923
O     -3.17947     0.02307    -0.36549
H     -2.55571     0.11756    -1.11989
O     -3.24025    -1.39778    -0.26108
H     -0.51972     1.58898    -2.29517
O     -0.35556     2.82872    -1.00904
H      0.17963     3.60909    -1.17724
O      0.62129     1.95094    -0.45671
H      0.06877     1.45749     0.18529
O      0.03057    -1.90806    -0.99107
H      0.90127    -1.67695    -0.58753
O     -0.72633    -2.17897     0.19587
H     -1.64025    -2.01286    -0.10409
O     -1.36675    -0.08948    -2.34306
H     -0.77013    -0.76348    -1.95281
O     -0.42111     0.83385    -2.89193
H     -4.06031    -1.61109    -0.71688
O      2.16252    -1.05411     0.25785
H      2.52703    -0.65689     1.08015
O      2.65869    -0.19975    -0.76555
H      1.90435     0.39500    -0.90596
