 36
-1364.9753802722084
O      1.12483     1.93638     1.57131
H      1.64882     2.11373     2.35752
O      0.07825     1.11809     2.08490
H      0.35851     0.23145     1.74838
O      1.02640    -1.04077     0.90731
H      1.69778    -0.97178     0.18767
O      0.70295    -2.42652     0.94948
H      0.02929    -2.48657     0.25182
O     -2.16296    -1.44811     2.35218
H     -2.34625    -0.49685     2.32839
O     -0.87425    -1.48830     2.97401
H     -0.35448    -1.98812     2.32607
O      0.38231    -2.47128    -2.78872
H      0.99723    -1.71812    -2.66378
O     -0.81793    -1.76991    -3.11541
H     -0.91895    -1.93920    -4.05612
O     -3.04624     1.06775     1.22509
H     -3.01690     0.60467     0.37828
O     -2.14872     2.15659     1.02086
H     -1.34730     1.84673     1.49376
O     -0.35051     0.82737    -0.78148
H     -0.98764     0.08367    -0.68624
O     -1.16252     1.78049    -1.46448
H     -1.55319     2.22290    -0.68874
O      1.66693    -0.17237    -2.15017
H      0.94778     0.28947    -1.64619
O      2.63782    -0.44180    -1.13347
H      3.16387     0.37278    -1.13696
O      3.01624     2.34869    -0.61209
H      2.21711     2.26985    -0.06446
O      3.92723     2.93414     0.32032
H      4.06936     3.80077    -0.07563
O     -2.04725    -1.15934    -0.82134
H     -1.75262    -1.44147    -1.71625
O     -2.02564    -2.40162    -0.10616
H     -2.17316    -2.09125     0.81574
