 36
-1364.9744918946303
O      0.81354     2.87483     1.35985
H      1.31072     3.68791     1.49673
O     -0.19273     3.25911     0.42515
H      0.21907     2.94891    -0.41714
O     -3.50418    -0.96270     2.87808
H     -4.31916    -1.30584     3.25577
O     -4.01341    -0.15210     1.80968
H     -3.20940     0.35854     1.60389
O      2.91600     0.33375    -0.82317
H      2.88033    -0.59375    -1.13000
O      3.46469     0.17159     0.49176
H      2.64697     0.13238     1.02042
O      2.00141    -2.10851    -1.35941
H      1.58651    -2.03454    -2.23891
O      0.86205    -2.12421    -0.50065
H      1.10907    -1.46814     0.17176
O      0.41551    -0.21219     2.76298
H     -0.25323    -0.83181     2.43864
O      0.98978     0.20358     1.53159
H      0.84514     1.17067     1.55484
O     -1.79491     1.09496     0.94531
H     -1.39234     1.97064     0.79776
O     -1.86373     0.58590    -0.39167
H     -1.89329    -0.37902    -0.20357
O      0.97112     2.01781    -1.58050
H      1.67636     1.39617    -1.28819
O      0.03458     1.13558    -2.19399
H     -0.63531     0.99160    -1.48783
O     -1.51666    -2.24288     1.62639
H     -2.32646    -1.84847     2.01674
O     -1.74127    -1.99400     0.23428
H     -0.87627    -2.26710    -0.12477
O      1.73208    -0.32554    -3.64583
H      1.03941     0.21707    -3.22167
O      1.00734    -1.54415    -3.81662
H      1.29836    -1.81624    -4.69119
