 16
-606.6326697124077
O     -1.59059     0.94984     0.64511
H     -1.69776     0.00284     0.47506
O     -2.85959     1.27049     1.22126
H     -2.60915     1.51101     2.11896
O      2.48374    -0.07877     1.26489
H      2.61533     0.43957     0.45987
O      1.07432    -0.34913     1.19421
H      1.04724    -1.24494     0.82556
O      1.80469     1.36138    -1.45536
H      1.57193     2.23444    -1.79197
O      0.53096     0.72295    -1.37605
H      0.31290     0.80962    -0.43048
O     -1.19093    -1.70136    -0.42582
H     -1.80827    -2.15095    -1.01291
O      0.07518    -2.12332    -0.93259
H      0.34621    -1.31812    -1.40098
