 32
-1213.3050620739293
O     -2.00713    -2.11188     0.83414
H     -2.58794    -2.72231     1.29380
O     -0.86984    -2.12275     1.70878
H     -0.15705    -1.90367     1.07443
O      1.52789    -2.42350    -0.82591
H      2.34593    -1.91987    -0.91232
O      0.67035    -1.39494    -0.33978
H     -0.01985    -1.33527    -1.02197
O     -1.45958     0.17240    -2.86003
H     -1.76828    -0.15133    -3.71202
O     -1.81791    -0.90062    -1.98782
H     -2.35846    -0.42733    -1.33598
O     -1.27578     1.03228    -0.14608
H     -1.27661     1.81843    -0.71555
O     -2.63908     0.88168     0.25730
H     -2.49711     0.66774     1.20029
O      1.00254     1.16318    -2.25887
H      0.11549     0.81988    -2.46803
O      0.68214     2.38412    -1.57910
H      1.08555     2.21632    -0.70498
O      3.70553     0.16316    -0.19064
H      4.54840     0.61712    -0.28087
O      3.43687    -0.26399    -1.52180
H      2.66886     0.28897    -1.74685
O      1.68639     1.65460     0.80260
H      2.31852     0.94212     0.59658
O      0.71040     0.99404     1.60290
H     -0.03468     0.95432     0.96974
O     -2.03700    -0.00807     2.81909
H     -1.61374    -0.86310     2.58094
O     -1.20987     0.46758     3.87777
H     -0.42013     0.75144     3.39567
