 32
-1213.316214604496
O      1.09651     1.66837     1.11071
H      2.00777     1.27402     1.06358
O      0.37023     0.59817     1.75020
H     -0.54786     0.94148     1.69525
O      0.94629    -0.43673    -0.95096
H      0.38063    -0.42195    -0.15970
O      0.86550    -1.80131    -1.36029
H      0.20627    -1.74523    -2.06661
O     -1.58483    -0.05567    -2.00043
H     -0.99921     0.69284    -1.75335
O     -2.85867     0.59452    -2.00088
H     -3.08997     0.54568    -1.05440
O     -0.27747     2.09373    -1.12078
H      0.30278     2.04730    -0.32248
O     -1.21397     3.11022    -0.75682
H     -1.66225     3.24547    -1.59684
O      3.47560     0.37280    -0.54831
H      2.57192     0.13074    -0.82212
O      3.34707     0.31760     0.87409
H      3.27011    -0.64576     1.02933
O     -1.26510    -1.54610     0.69535
H     -0.57078    -2.18673     0.91920
O     -1.92577    -2.15360    -0.41555
H     -1.83977    -1.42645    -1.06953
O      2.63479    -2.27944     1.20285
H      2.43085    -2.52356     0.29207
O      1.31935    -2.20899     1.76217
H      1.25122    -1.26881     1.98442
O     -2.07582     1.53809     1.25460
H     -1.95585     2.13977     0.49518
O     -2.91748     0.51841     0.70773
H     -2.36206    -0.27653     0.84444
