 24
-909.977725396038
O     -2.72677    -1.60176    -0.09376
H     -2.91810    -0.74294    -0.49318
O     -1.80993    -1.21159     0.92633
H     -1.06944    -1.82225     0.79081
O      0.86060    -0.56073    -1.31630
H      1.53274    -0.53242    -2.01011
O     -0.26836    -1.18656    -1.92349
H     -0.87472    -0.43203    -1.95054
O      1.78320    -0.93048     1.75539
H      1.08433    -0.26641     1.92104
O      1.05660    -1.87889     0.96929
H      1.07768    -1.44296     0.09887
O     -1.66342     1.32399    -1.48155
H     -1.15643     1.56825    -0.68038
O     -3.00299     1.32525    -0.97899
H     -3.46490     1.74469    -1.70987
O      3.36509     0.38566     0.01473
H      2.91670    -0.17245     0.68793
O      2.56257     1.56618     0.08126
H      3.09528     2.14232     0.64002
O     -0.23973     0.79904     1.71292
H     -0.94106     0.19862     1.38885
O     -0.03076     1.68321     0.61082
H      0.90622     1.52055     0.38547
