 32
-1213.3127476755342
O     -2.46786     1.81189    -0.48710
H     -2.02309     1.23802    -1.13096
O     -1.50981     2.85394    -0.27938
H     -1.07290     2.58379     0.55046
O      1.95335    -2.76034    -0.33955
H      1.06651    -2.64221     0.07978
O      1.59953    -3.07531    -1.68767
H      1.88554    -3.99105    -1.74975
O      0.24324     0.63878     1.71498
H     -0.70268     0.41485     1.78050
O      0.19026     2.06634     1.66631
H      0.97546     2.23399     1.10750
O      1.91413     2.30955    -0.35882
H      2.39246     1.45053    -0.41565
O      1.05628     2.22059    -1.50406
H      0.33821     2.81709    -1.24773
O      2.78178    -0.17627    -0.25875
H      2.61127    -1.13414    -0.38687
O      2.78397    -0.07494     1.16375
H      1.83294     0.03325     1.34170
O     -0.26197    -0.66776    -2.60951
H      0.27942    -1.43298    -2.37653
O     -0.38145    -0.05313    -1.33168
H      0.29724     0.66046    -1.36532
O     -3.23712    -0.75550     1.56027
H     -3.58954    -0.87970     2.44409
O     -2.42675     0.39405     1.77625
H     -2.72545     0.98081     1.05421
O     -1.63147    -2.68847     0.38029
H     -2.22405    -2.10105     0.86809
O     -0.40912    -1.98064     0.54102
H     -0.51235    -1.22283    -0.08113
