 24
-909.9756339198763
O     -1.46620     1.23271    -0.74507
H     -1.88967     0.63228    -0.08273
O     -1.39905     0.38542    -1.88730
H     -2.00085     0.82154    -2.49577
O      1.05846    -1.85013    -2.56547
H      1.23729    -2.78937    -2.47654
O      0.22288    -1.63275    -1.43793
H     -0.27366    -0.85197    -1.74538
O      2.39651     1.20613    -1.87037
H      1.98391     1.67247    -1.12666
O      2.60575    -0.07107    -1.25170
H      2.13722    -0.65863    -1.86446
O     -2.22999    -0.44809     1.14217
H     -1.79858    -0.36305     2.01896
O     -1.86435    -1.76360     0.73105
H     -1.04766    -1.59264     0.23942
O     -0.42294     1.10978     2.95690
H      0.24113     0.77752     2.32875
O     -0.93532    -0.12856     3.46173
H     -1.21010     0.12720     4.34710
O      1.08783     0.24695     0.88408
H      1.74468    -0.10217     0.24203
O      0.96454     1.58701     0.38420
H      0.07606     1.53645    -0.00668
