 20
-758.3006922186654
O     -1.69484    -2.63381     2.05627
H     -1.59425    -3.47218     1.59418
O     -1.53580    -1.70531     0.98183
H     -0.69332    -1.27912     1.20493
O      2.05413     0.68282    -2.75406
H      1.33944     0.46590    -3.36200
O      2.51739    -0.60848    -2.35207
H      2.14097    -0.67896    -1.46248
O     -1.68518     1.35034     1.13611
H     -1.83845     2.05448     1.77483
O     -3.00038     0.81982     0.93288
H     -2.81708    -0.11618     1.10380
O      1.86762    -0.98654     0.47825
H      2.67880    -0.86855     0.97953
O      0.97567    -0.12366     1.18916
H      0.93653     0.65637     0.58677
O      0.82280     1.79081    -0.65663
H      1.39866     1.54900    -1.40849
O     -0.45295     1.44896    -1.22307
H     -0.99472     1.42914    -0.41280
