 40
-1516.6463529387713
O      0.09177    -0.09056    -3.04176
H     -0.75492     0.29446    -2.76233
O      1.01879     0.63168    -2.22098
H      1.43082    -0.09178    -1.70733
O     -0.79604    -1.32058     2.86752
H      0.14306    -1.44028     3.10161
O     -1.21662    -0.30312     3.75468
H     -1.75432     0.24639     3.16962
O      0.94899     0.99484     0.75596
H      0.91800     1.91468     0.41316
O      0.76234     1.22335     2.16001
H      1.43381     0.60682     2.48760
O      2.25831    -1.52947    -1.13429
H      2.19479    -2.16863    -1.86645
O      1.79868    -2.32067    -0.04048
H      0.81998    -2.27998    -0.12501
O     -2.24267     3.05186     0.92741
H     -2.69721     2.47456     0.27804
O     -2.07289     2.16368     2.03344
H     -1.10810     2.12989     2.11454
O     -1.04322    -0.49361    -0.23292
H     -0.27095     0.02517     0.11426
O     -0.82737    -1.81621     0.24446
H     -0.93849    -1.68329     1.20933
O     -2.89777     1.24290    -0.93851
H     -2.38573     0.47626    -0.61355
O     -2.23590     1.51371    -2.17905
H     -1.65708     2.25729    -1.93481
O      1.25187    -2.78643    -3.35187
H      0.64585    -2.03963    -3.47572
O      0.37270    -3.78247    -2.83544
H      0.41469    -4.44737    -3.52961
O      2.47901    -0.98894     2.17837
H      2.32851    -1.46882     1.32859
O      1.84088    -1.84863     3.12308
H      2.58604    -2.16738     3.64220
O     -0.19284     3.17338    -1.57982
H      0.49669     2.55263    -1.85962
O      0.16927     3.39345    -0.21151
H     -0.71513     3.47462     0.20580
