 24
-909.9808817199163
O     -1.33079    -1.75626    -1.56878
H     -1.37601    -2.08974    -0.63439
O      0.01836    -2.08320    -1.90014
H     -0.10403    -2.68274    -2.64155
O     -2.23165    -1.27405     1.34353
H     -1.90701    -0.44094     0.95848
O     -1.19984    -2.19088     0.99357
H     -0.39981    -1.82326     1.41075
O      1.60489    -0.03816    -1.09775
H      1.06586    -0.74103    -1.50778
O      1.26023     1.13362    -1.83884
H      0.28809     1.14519    -1.74880
O     -1.35410     0.94163    -1.22823
H     -1.52469    -0.00980    -1.34388
O     -1.31410     1.04002     0.20579
H     -0.73648     1.83059     0.29185
O      1.34778     0.01356     1.55115
H      1.53559     0.01692     0.58531
O      1.26697    -1.38861     1.80298
H      1.78635    -1.46910     2.60781
O      1.14493     2.94282     1.54778
H      0.99332     2.02938     1.83121
O      0.49248     2.95683     0.28162
H      1.18433     2.68969    -0.34519
