 36
-1364.9807484262062
O      0.75826     1.12870     2.05875
H      0.23962     0.33384     2.25814
O      1.71118     0.59712     1.13828
H      1.68636     1.23706     0.39034
O      0.58902    -2.45273     2.86960
H      0.99947    -2.92133     3.60238
O     -0.73234    -3.00326     2.84265
H     -1.20102    -2.21990     2.49832
O     -2.57619     0.01604     1.59305
H     -2.24564     0.89852     1.36576
O     -1.37087    -0.74219     1.59037
H     -1.17515    -0.83307     0.62399
O      3.39376    -0.95248    -2.01151
H      2.97911    -1.43800    -1.27064
O      2.24101    -0.49129    -2.70413
H      2.20425    -1.05798    -3.48042
O     -3.38470     1.09443    -1.37890
H     -2.92300     0.24376    -1.33251
O     -2.36191     1.91392    -1.93564
H     -2.71030     2.14488    -2.80237
O     -0.86590     3.30739    -0.09057
H     -1.52258     2.91662    -0.69152
O     -1.21860     2.69583     1.14967
H     -0.37705     2.28870     1.42937
O      0.65283     1.34189    -1.68111
H      1.34410     0.73946    -2.03629
O      1.42178     2.27727    -0.92467
H      0.69615     2.87624    -0.64240
O     -0.99147    -0.57050    -0.96304
H     -0.47243     0.22937    -1.21122
O     -0.53893    -1.52306    -1.92099
H      0.05028    -2.04097    -1.34725
O      2.13092    -1.87158     0.20247
H      1.96967    -0.99747     0.60908
O      0.81922    -2.44356     0.23379
H      0.71320    -2.64677     1.18642
