 20
-758.3118499676327
O     -0.70357    -1.99391     1.36622
H      0.23829    -1.84944     1.14725
O     -0.75418    -1.57824     2.72998
H     -1.07088    -2.38285     3.15270
O      1.64466    -0.95059     0.54655
H      1.43084    -0.02198     0.72427
O      1.20476    -1.14393    -0.80182
H      1.49393    -0.31014    -1.24620
O     -0.29168     2.20769     0.14165
H     -0.94580     1.47525     0.10584
O      0.46759     1.84880     1.29805
H      0.30497     2.60062     1.87498
O      0.59334     1.11225    -2.88034
H     -0.20142     0.70775    -2.49758
O      1.43495     1.30793    -1.75205
H      0.88944     1.86423    -1.16041
O     -1.40424    -0.61582    -1.36105
H     -0.55292    -1.03511    -1.13624
O     -1.77852    -0.01608    -0.10951
H     -1.60263    -0.73820     0.52894
