 32
-1213.3038554106636
O      3.13967    -1.98608    -0.99410
H      3.68145    -2.69191    -1.35944
O      3.21708    -2.26650     0.40967
H      3.21846    -1.35135     0.74786
O     -0.10245    -1.15161    -0.47708
H     -0.20273    -0.33040    -0.99968
O      0.43133    -2.08381    -1.41770
H      1.38601    -1.97992    -1.26662
O     -3.38657    -1.49486    -0.73689
H     -3.53754    -2.25515    -1.30720
O     -2.52897    -2.03216     0.27129
H     -1.63482    -1.76411    -0.04211
O     -1.52922     0.21098     1.85945
H     -1.27723     1.04323     2.28460
O     -2.87878     0.00195     2.29077
H     -3.04335    -0.82568     1.81792
O      0.92878     1.22812    -1.73696
H      0.71876     1.92956    -1.08012
O      2.33015     1.06339    -1.55815
H      2.69139     1.53734    -2.31279
O      1.42034     0.27624     1.54520
H      0.97985    -0.43245     1.04501
O      2.73200     0.31405     0.98708
H      2.57489     0.67302     0.09227
O      0.03177     2.96177     0.11019
H     -0.90903     2.79324    -0.09163
O      0.09371     2.56388     1.48577
H      0.69860     1.79887     1.43515
O     -2.25010     1.58411    -0.28109
H     -2.03215     1.00398     0.47998
O     -2.02747     0.73698    -1.41982
H     -2.63290    -0.00823    -1.24032
