 32
-1213.302387680371
O      0.90239    -1.72986     0.56380
H      1.57921    -1.38760     1.17641
O     -0.25225    -1.17237     1.20164
H     -0.91258    -1.87226     1.06822
O     -0.58345    -1.95846    -1.84822
H      0.06029    -2.59987    -2.16457
O     -0.88405    -1.21379    -3.03187
H     -0.96590    -0.31113    -2.65781
O     -2.68609    -1.76715    -0.24368
H     -2.01225    -1.82693    -0.95438
O     -2.27833    -2.87071     0.56857
H     -3.12322    -3.25716     0.81338
O     -1.03338     1.29445    -2.08121
H     -1.32518     1.35204    -1.15017
O      0.27382     1.87140    -2.00842
H      0.82226     1.06742    -2.06721
O      1.02997     2.26668     0.69158
H      1.01467     2.44430    -0.26108
O      1.83823     3.32753     1.21023
H      1.73413     3.16089     2.15291
O      2.83603     0.16197    -0.83527
H      3.53429    -0.42750    -1.13307
O      1.72470    -0.33502    -1.57335
H      1.25341    -0.89001    -0.90664
O      2.11330     0.02720     2.16731
H      2.13749     0.69793     1.46789
O      1.06890     0.52927     3.01337
H      0.30619     0.03349     2.68056
O     -1.71755     1.43834     0.49783
H     -0.87432     1.55944     0.96232
O     -2.52315     0.77977     1.46820
H     -2.74643    -0.02500     0.98154
