 36
-1364.971145797367
O      0.61590     1.02925     2.08098
H      0.21668     0.28934     2.57932
O      1.17031     0.29556     0.97658
H      0.67163     0.64270     0.21577
O     -0.34553    -1.74668    -1.19722
H      0.20876    -0.97809    -1.46794
O     -1.51239    -1.05156    -0.72995
H     -1.50870    -1.23838     0.23924
O     -1.66258    -1.36326     1.93321
H     -1.98207    -0.45268     2.11592
O     -0.44979    -1.37455     2.69603
H      0.09018    -2.00331     2.17980
O      3.60916     0.01689    -0.68389
H      2.89200    -0.24032    -0.07870
O      4.44032    -1.14272    -0.69434
H      5.14765    -0.87352    -0.09896
O     -2.45401     1.18891     2.12311
H     -2.02116     1.78539     1.46671
O     -3.78484     1.13651     1.60306
H     -4.26082     1.57164     2.31576
O     -0.10543     2.58588    -0.06290
H      0.21859     2.67657     0.84296
O     -1.51192     2.72257     0.17593
H     -1.88036     2.41428    -0.66908
O      1.84063     0.26682    -2.96962
H      2.64999     0.35219    -2.44693
O      0.88484     0.46842    -1.92901
H      0.21101     1.01473    -2.38861
O     -2.25671     1.23592    -2.03402
H     -1.98391     0.36345    -1.67236
O     -1.27503     1.46908    -3.04193
H     -1.73476     1.23895    -3.85495
O      2.18076    -2.59783     0.81322
H      2.60552    -3.39897     0.49120
O      0.80962    -2.98465     0.90450
H      0.43263    -2.62920     0.06857
