 40
-1516.641097090635
O     -0.96633     0.48875    -2.28841
H     -1.59080     1.05899    -1.79886
O      0.28128     1.02078    -1.82691
H      0.90788     0.33316    -2.13964
O     -1.28189     2.43843     2.86995
H     -0.49959     2.66747     2.35080
O     -2.09714     1.81537     1.88546
H     -1.98655     0.85739     2.07379
O      1.60856    -1.84706     1.42193
H      1.44437    -0.87808     1.38079
O      0.53237    -2.30990     2.25892
H      0.29705    -3.10206     1.74941
O     -1.39212    -0.45692     0.39427
H     -1.37822    -1.31725    -0.07788
O     -1.67341    -0.82160     1.75282
H     -0.81623    -1.20703     2.03418
O     -2.37325     2.22197    -0.74184
H     -2.28711     2.07694     0.22969
O     -1.78360     3.50943    -0.89661
H     -2.54348     4.09955    -0.90255
O      2.82822    -1.25656    -1.37835
H      2.76495    -0.43132    -0.87141
O      1.91669    -0.98965    -2.44304
H      1.32659    -1.75794    -2.41119
O      0.77036     3.47225    -0.09941
H     -0.14499     3.45624    -0.44323
O      0.60400     4.21017     1.10705
H      1.51982     4.34138     1.36882
O      0.39385    -4.36697     0.51862
H      0.71440    -5.24593     0.74535
O      1.32151    -3.98169    -0.50074
H      1.70806    -3.19139    -0.08805
O      1.10825     0.73955     1.00572
H      0.39926     0.69760     0.33002
O      2.20891     1.27027     0.27091
H      1.81444     2.12630     0.00299
O     -0.76062    -2.15403    -2.47530
H     -0.93925    -1.19260    -2.38179
O     -1.12292    -2.61748    -1.16955
H     -0.58993    -3.42052    -1.08620
