 24
-909.9764686434764
O     -0.10734    -2.53991    -1.48535
H     -0.88391    -1.98599    -1.26362
O      0.01949    -3.27456    -0.25763
H     -0.19394    -4.16794    -0.54805
O     -1.95516    -1.00215    -0.29932
H     -1.72575    -0.04778    -0.32483
O     -1.79533    -1.32233     1.09115
H     -1.13956    -2.03261     1.03824
O      1.70175    -0.55390    -0.60410
H      1.34983    -1.36053    -1.02379
O      1.69334     0.40584    -1.66344
H      0.74328     0.57400    -1.79332
O     -0.85644     1.31812    -1.88800
H     -1.08132     2.15052    -2.31468
O     -1.25692     1.55506    -0.53610
H     -0.43139     1.98061    -0.17615
O      0.81035    -0.36104     2.26054
H      1.19098    -0.30674     1.36761
O     -0.24630     0.59333     2.15525
H     -0.99465     0.01878     1.89708
O      1.34903     2.66671     1.47021
H      0.76353     1.96477     1.81729
O      1.02335     2.62157     0.07497
H      1.69703     2.02831    -0.29699
