 40
-1516.6516366428777
O      1.46339     1.41291     2.18561
H      0.81214     1.54476     1.45973
O      2.27768     0.34979     1.69604
H      1.83030    -0.44131     2.05222
O      1.21914     0.94464    -1.05535
H      1.15255     1.27845    -1.97449
O      2.57819     0.50096    -0.96335
H      2.64547     0.46344     0.01204
O     -0.76568     1.53971     0.79944
H     -1.33150     0.74205     0.93173
O     -1.42542     2.51514     1.59605
H     -1.32598     2.11385     2.47922
O     -0.13676     0.45153     4.07532
H      0.51788     0.92420     3.51348
O     -1.25987     1.32101     4.02408
H     -1.20280     1.77519     4.87022
O     -0.18908     0.17956    -3.45792
H      0.65430    -0.32518    -3.56665
O      0.30502     1.52928    -3.50519
H     -0.50261     1.99241    -3.23692
O     -0.41968    -2.03251    -1.28223
H     -1.17873    -2.07641    -0.66012
O      0.58697    -1.52962    -0.39848
H      0.69877    -0.58878    -0.66949
O     -1.77958     1.78118    -1.71778
H     -1.32548     1.81919    -0.85444
O     -2.22447     0.41552    -1.76981
H     -1.58197     0.05688    -2.41375
O      0.77369    -1.83840     2.19102
H      0.61828    -1.88750     1.22063
O     -0.55660    -1.85722     2.71086
H     -0.53321    -1.07953     3.29604
O      2.13273    -1.05516    -3.46343
H      2.70899    -0.85059    -2.71105
O      1.91875    -2.46538    -3.35924
H      1.14112    -2.50282    -2.78303
O     -2.49834    -0.43856     0.71706
H     -2.58849    -0.21528    -0.24085
O     -2.24409    -1.84454     0.65764
H     -1.72745    -1.96933     1.48020
