 36
-1364.971790637334
O      1.45202     2.30638    -0.26378
H      1.03869     2.21573    -1.14502
O      2.21224     1.10879    -0.15754
H      1.84404     0.67890     0.64392
O     -0.90014    -1.85259    -1.30866
H     -1.13394    -2.44693    -0.58134
O     -0.48885    -0.74429    -0.50134
H     -1.11049    -0.04917    -0.77278
O      0.18045    -0.41894     2.67754
H     -0.00678     0.53257     2.77584
O      1.37442    -0.37580     1.89346
H      1.39735    -1.25142     1.46680
O      2.20571    -0.81146    -2.00683
H      2.17749    -0.01489    -1.43925
O      1.02016    -0.65956    -2.79489
H      0.40209    -1.27647    -2.36318
O     -0.66472     2.81580     1.22868
H      0.24030     2.59169     0.93292
O     -0.80404     2.10984     2.46133
H     -1.73474     1.85580     2.36765
O     -2.38145     1.49529    -0.25903
H     -1.72865     2.15324     0.05037
O     -2.89802     1.09897     1.01682
H     -2.64782     0.15966     1.06411
O     -1.27895     1.67238    -3.10839
H     -1.84239     1.95428    -2.37833
O      0.01697     1.79928    -2.52409
H      0.40708     0.93052    -2.76736
O     -2.10857    -1.40911     1.65390
H     -1.22821    -1.20674     2.03079
O     -1.85775    -2.68152     1.07203
H     -2.67720    -3.13810     1.28098
O      2.97503    -2.63759     0.70299
H      3.18287    -3.57502     0.76137
O      1.78464    -2.68175    -0.09062
H      2.03467    -2.10123    -0.84297
