 40
-1516.6440331024598
O      2.99357     0.27370    -0.44028
H      2.60271     0.18999     0.45508
O      2.66958     1.62325    -0.79865
H      2.45347     1.52730    -1.74478
O      0.66306     0.34561     2.29779
H      0.33456     0.59585     1.40982
O      1.93709    -0.22617     1.99921
H      1.74927    -1.17405     2.12883
O     -0.30285     0.89770    -0.14220
H     -0.13917     0.74611    -1.09814
O     -1.32508     1.90292    -0.15613
H     -2.11561     1.36948     0.03500
O     -1.35088    -2.30317     1.04595
H     -1.72455    -1.60266     1.63065
O     -1.64465    -1.76592    -0.25206
H     -0.75727    -1.67749    -0.64911
O     -1.43915    -0.63655     3.67300
H     -0.60982    -0.24962     3.34110
O     -2.26825    -0.35522     2.54483
H     -3.11531    -0.11751     2.93794
O     -0.05948     3.48874    -1.90775
H     -0.59927     3.07736    -1.20500
O      0.95506     4.17161    -1.18097
H      1.50630     3.43802    -0.87600
O      1.28787     1.60696    -3.15910
H      0.77486     2.40849    -2.91007
O      0.31421     0.60102    -2.82313
H      0.84087    -0.21524    -2.91127
O     -3.89218     0.65716     0.09648
H     -4.46471     0.89629    -0.63935
O     -4.14803    -0.73810     0.23487
H     -3.29811    -1.11383    -0.05869
O      1.79166    -3.31681     0.63459
H      1.83160    -4.26619     0.78544
O      1.13816    -2.84016     1.80713
H      0.21046    -2.72301     1.49089
O      0.90314    -1.75178    -1.31426
H      1.34496    -2.33188    -0.66147
O      1.97471    -1.43150    -2.18774
H      2.49705    -0.83299    -1.60576
