 32
-1213.312795192379
O      1.24632    -2.77383    -1.68219
H      0.41490    -3.27395    -1.62934
O      1.73893    -2.92359    -0.35277
H      2.60177    -3.32754    -0.49709
O     -0.81023    -0.26209    -1.11570
H     -0.99637     0.70360    -1.03965
O      0.33913    -0.23362    -1.96847
H      0.69437    -1.13359    -1.83392
O     -1.46850    -3.26049     0.11615
H     -2.37553    -3.53562     0.28897
O     -1.54848    -2.81543    -1.23743
H     -1.43887    -1.84569    -1.13440
O     -2.56275     0.66630     1.26887
H     -1.81884     0.83337     1.89090
O     -2.67527    -0.74743     1.34576
H     -1.78172    -1.03955     1.12243
O      1.64130     2.59190    -0.55789
H      1.62848     2.42024     0.39787
O      2.24332     1.41051    -1.08674
H      1.47375     0.91126    -1.43156
O      1.34742    -0.55960     0.90083
H      1.39189    -1.44828     0.49566
O      2.74322    -0.23788     0.99508
H      2.81831     0.35071     0.22108
O      0.25395     2.46419     1.99582
H     -0.47600     2.78181     1.43314
O     -0.19758     1.13787     2.28426
H      0.42505     0.57671     1.77223
O     -1.62380     2.95523     0.11337
H     -2.24330     2.24397     0.35082
O     -0.98426     2.37685    -1.02545
H     -0.05952     2.68700    -0.92928
