 20
-758.3084842829923
O      0.80115    -2.90153    -0.26439
H      1.27560    -3.33359     0.45276
O     -0.56222    -2.95365     0.16560
H     -0.62792    -2.12341     0.68307
O      2.26738    -0.03799    -0.25822
H      1.97443     0.84250     0.01066
O      1.19716    -0.43343    -1.12295
H      1.05254    -1.35900    -0.81972
O      1.26777     2.38090     0.70374
H      1.52471     2.80567     1.52670
O     -0.08153     2.02766     1.00094
H     -0.49669     2.16032     0.12905
O     -2.02942    -0.41877     1.03446
H     -1.94740    -0.31934     0.07501
O     -0.66577    -0.58432     1.41311
H     -0.34415     0.33700     1.39252
O     -1.24022     0.52132    -1.63723
H     -0.30728     0.24095    -1.50473
O     -1.12012     1.93968    -1.48932
H     -1.47873     2.25360    -2.32659
