 24
-909.9770876486857
O     -2.12103    -1.26852     1.28868
H     -1.85378    -1.38542     0.35819
O     -1.01191    -0.49936     1.75791
H     -0.31312    -1.19085     1.84226
O     -0.95867    -1.14167    -1.12457
H     -0.80371    -0.41344    -1.76091
O      0.31952    -1.77372    -1.06654
H      0.88733    -1.02016    -0.83691
O      1.45831     0.68030     0.29513
H      0.86410     1.32257     0.73626
O      2.19248     1.49618    -0.61562
H      1.48857     1.84594    -1.18149
O     -0.39391     0.82221    -2.82132
H     -0.80396     1.03120    -3.66690
O     -0.31883     2.10150    -2.19086
H     -0.87771     1.94774    -1.40762
O      2.17365    -1.94649     1.58558
H      1.98567    -1.06481     1.23400
O      0.85381    -2.37870     1.90382
H      0.76345    -3.18906     1.38928
O     -0.42240     2.40001     1.04426
H     -0.85863     2.55409     1.88876
O     -1.38706     1.63166     0.31645
H     -1.34870     0.76825     0.80500
