 36
-1364.9775650915922
O      3.11130     1.82388    -1.71261
H      3.02248     0.87134    -1.53841
O      1.74316     2.22466    -1.63771
H      1.63568     2.48952    -0.70187
O     -1.05590     1.25001    -1.66120
H     -1.85561     0.74063    -1.88703
O     -0.01671     0.35015    -2.08084
H      0.74555     0.98476    -2.05993
O      2.09179     0.84105     2.58469
H      1.44684     0.09495     2.52619
O      3.18506     0.32265     1.84119
H      3.72198    -0.11958     2.50636
O     -2.92941    -1.33743    -2.87000
H     -2.37483    -1.80356    -2.22115
O     -3.30489    -0.20734    -2.06690
H     -4.10549     0.08552    -2.51178
O      2.93710    -1.82474    -0.53332
H      2.10933    -2.32046    -0.55183
O      2.41964    -0.50028    -0.56628
H      2.64845    -0.18084     0.33093
O     -3.04199    -0.81000     0.96459
H     -3.97085    -0.62708     0.80080
O     -3.07300    -1.41386     2.25819
H     -2.32522    -0.93032     2.64954
O      0.84006     2.58028     0.87193
H      1.28160     2.10711     1.59923
O     -0.41702     1.90427     0.83566
H     -0.57399     1.77033    -0.12958
O      0.24945    -0.93786     2.13869
H      0.00062    -1.17693     1.21255
O     -0.75959    -0.04418     2.57836
H     -0.69160     0.68348     1.92500
O     -1.45457    -2.17838    -0.69073
H     -2.00404    -1.72637    -0.01769
O     -0.14879    -1.68481    -0.37393
H     -0.01040    -0.99848    -1.07163
