 28
-1061.6444190843567
O      2.26784    -2.16689    -1.51538
H      3.22644    -2.15218    -1.43293
O      2.03158    -0.90688    -2.14042
H      1.07000    -0.95398    -2.31080
O     -0.34184     1.94697     1.16147
H     -0.96140     1.91175     1.91342
O      0.53296     0.86612     1.50233
H      1.32933     1.07055     0.97085
O     -1.74039     1.47463    -1.05461
H     -1.21919     1.64098    -0.24290
O     -2.86051     0.74458    -0.54199
H     -0.87193     0.34412    -1.95576
O      1.11483    -2.17587     0.96272
H      1.44110    -2.18381     0.05024
O     -0.17757    -1.59419     0.79773
H     -0.03589    -0.69575     1.16590
O     -2.41100     0.24459     2.10241
H     -2.75900     0.46923     1.22156
O     -2.47678     1.52365     2.73468
H     -2.77536     1.28194     3.61602
O     -1.52545    -1.34130    -1.45987
H     -1.00063    -1.52643    -0.64880
O     -0.61382    -0.56107    -2.23572
H     -2.64872    -0.13473    -0.91816
O      2.45003     1.10096    -0.39121
H      2.26645     0.42182    -1.07054
O      3.70401     0.62995     0.11536
H      4.27067     1.37732    -0.09553
