 32
-1213.314352627713
O      1.44092    -3.52661    -0.89361
H      2.07244    -3.19809    -0.24811
O      0.81000    -2.31854    -1.29185
H      0.08152    -2.25670    -0.63367
O      1.38808    -1.37770     2.35663
H      1.78875    -0.98207     1.56153
O      1.70842    -0.35996     3.31102
H      0.91749     0.20734     3.23085
O      0.07428    -0.26534    -2.81476
H      0.45136    -1.10768    -2.50597
O      0.74917     0.63543    -1.93783
H      0.08997     1.34092    -1.78662
O     -0.42573     1.06106     2.53325
H     -0.82237     0.47044     1.86128
O      0.04192     2.13434     1.72793
H      0.90724     1.81168     1.41123
O      2.18765    -0.06312     0.17847
H      1.69978     0.07735    -0.66596
O      2.34911     1.28273     0.63543
H      3.12555     1.18275     1.19184
O     -2.41539    -0.54700    -1.74173
H     -1.66965    -0.42452    -2.35953
O     -3.23636     0.59178    -2.01083
H     -2.99587     1.15726    -1.26748
O     -0.82787     2.69370    -1.23654
H     -1.29939     3.42502    -1.64716
O     -1.74419     2.31064    -0.20691
H     -1.15327     2.35301     0.58196
O     -1.39258    -0.59207     0.72135
H     -1.82302    -0.58757    -0.17217
O     -0.78484    -1.88572     0.75405
H     -0.17559    -1.80596     1.51379
