 24
-909.9700046621023
O     -2.64763    -0.94758    -1.31857
H     -2.78323    -0.07018    -0.90843
O     -2.39518    -1.73221    -0.14662
H     -2.99730    -2.46901    -0.28456
O      1.11642    -1.88298    -1.83901
H      1.87881    -1.87772    -1.24600
O      0.18339    -1.20346    -0.98903
H     -0.63522    -1.71718    -1.09158
O      2.80372    -0.82571     0.27513
H      2.03029    -0.54800     0.80390
O      3.11009     0.37118    -0.43987
H      3.89639     0.68771     0.01672
O     -2.51209     1.48281    -0.07644
H     -1.65967     1.73771    -0.48219
O     -2.13090     1.18763     1.27433
H     -1.96675     0.23555     1.23104
O      0.67886     0.04608     1.74297
H      0.49850     0.90119     1.30903
O      1.12210     0.42929     3.04492
H      0.31297     0.32016     3.55442
O     -0.10383     1.40840    -1.36294
H      0.01983     0.43710    -1.31467
O      0.87183     1.88065    -0.42343
H      1.66132     1.35432    -0.64412
