 20
-758.307003139205
O     -1.27804    -0.21205     2.33841
H     -1.16253    -0.61187     3.20517
O     -1.54030    -1.36045     1.53340
H     -0.71413    -1.42368     1.00699
O      0.60034    -1.23136    -0.08688
H      1.25578    -0.61797     0.31856
O     -0.01369    -0.32230    -1.01873
H     -0.82601    -0.81478    -1.26137
O      1.27935     1.37107     1.96711
H      0.42614     0.92475     1.87476
O      2.05511     0.71402     0.96366
H      2.10729     1.39632     0.26492
O      2.16488     1.00521    -1.94095
H      1.30849     0.59412    -1.73418
O      2.00765     2.24362    -1.23957
H      2.68642     2.78173    -1.65718
O     -2.30159    -1.59124    -1.47828
H     -2.87123    -1.76949    -2.23207
O     -3.02002    -0.55012    -0.81111
H     -2.78378    -0.76947     0.10211
