 32
-1213.3142462017402
O      1.10236     1.49542     1.60593
H      0.38680     1.40885     0.94084
O      0.48098     0.97168     2.78247
H      1.14800     0.32558     3.05501
O     -2.50909    -0.61409     0.03813
H     -2.45288    -0.39238     0.98609
O     -1.97418    -1.94221     0.05079
H     -1.20293    -1.83139    -0.53642
O     -1.95215     1.05036    -3.53591
H     -1.60096     1.78454    -3.00933
O     -1.76978    -0.02413    -2.59727
H     -2.67692    -0.29442    -2.39148
O     -0.18151     2.24981    -1.49452
H      0.78407     2.21809    -1.35171
O     -0.65103     1.54745    -0.33837
H     -1.11012     0.78522    -0.73521
O      2.45074     2.11428    -0.83834
H      2.33116     2.37794     0.08350
O      2.75830     0.73088    -0.65567
H      2.11895     0.32281    -1.26893
O      1.00522    -0.63806    -2.06924
H      0.24421    -0.34962    -2.59589
O      0.35989    -1.55477    -1.18683
H      0.97651    -1.58985    -0.42532
O      1.88458    -1.49066     1.00779
H      2.34027    -0.64433     0.86781
O      1.69704    -1.50650     2.42303
H      0.76931    -1.80550     2.48166
O     -0.96594    -1.91542     2.47902
H     -1.29993    -2.22873     1.61535
O     -1.62755    -0.64539     2.52523
H     -0.87147    -0.02880     2.59519
