 32
-1213.3054482355737
O     -1.43159    -1.76840     0.89051
H     -0.46839    -1.62710     0.87941
O     -1.75475    -1.98570    -0.48268
H     -2.36589    -1.23525    -0.68224
O      3.41273    -0.38165     0.16028
H      3.55766     0.50182     0.52015
O      2.61260    -0.03573    -0.97663
H      2.18259    -0.88598    -1.18194
O     -3.20740     0.13916    -1.03120
H     -3.02254     0.77874    -0.32514
O     -2.76684     0.78438    -2.22524
H     -1.81236     0.89035    -2.09141
O      0.04590     0.95725    -2.24071
H      0.20566     0.00920    -2.38916
O     -0.05827     0.97073    -0.81816
H      0.87623     1.04842    -0.53704
O      1.95693     2.01936     1.05789
H      1.71985     1.35237     1.73239
O      0.90789     2.97408     1.26458
H      1.30076     3.75770     0.86831
O      0.27567    -1.77655    -2.15751
H     -0.50235    -1.92357    -1.56700
O      1.31819    -2.32040    -1.35755
H      1.56996    -3.10450    -1.85707
O      1.11747    -0.08243     2.45333
H      0.16145     0.12748     2.49979
O      1.14830    -1.09499     1.44220
H      2.03679    -0.96356     1.05476
O     -1.27066     1.12483     2.26912
H     -0.95946     1.72397     1.57436
O     -2.43665     0.55927     1.68168
H     -2.14529    -0.36222     1.52596
