 40
-1516.6422626681829
O      2.13266    -1.07433     2.65418
H      2.69831    -1.28802     1.88256
O      2.23620     0.34741     2.71426
H      1.74857     0.61565     1.92369
O     -0.11747     0.28334    -2.34428
H      0.86158     0.28928    -2.31687
O     -0.44384    -1.03010    -1.88046
H     -1.42856    -0.96965    -1.84394
O     -1.73427     2.77689    -0.92809
H     -2.15941     2.39197    -0.13683
O     -2.18634     1.88516    -1.95256
H     -1.36617     1.38319    -2.13023
O     -0.43867    -1.58217     1.97156
H      0.47381    -1.35763     2.26944
O     -0.66826    -0.56752     0.99855
H     -0.11665    -0.82188     0.22627
O     -1.30670     2.00894     2.29333
H     -1.88347     2.39633     2.95589
O     -2.24923     1.48255     1.36082
H     -1.83166     0.60705     1.18696
O      0.80685     2.19348    -0.27566
H     -0.04614     2.55096    -0.62534
O      0.93953     2.84215     0.99083
H      0.15427     2.49968     1.45115
O      2.99093     0.92058    -1.05465
H      2.23743     1.46887    -0.73271
O      2.55321     0.61880    -2.37752
H      3.03330     1.26380    -2.90542
O     -0.11415    -3.66729    -0.41234
H     -0.13798    -3.24907    -1.28183
O     -1.38096    -3.24438     0.11149
H     -1.10247    -2.81003     0.94115
O      3.18619    -1.47793     0.25014
H      3.34817    -0.61582    -0.16962
O      1.80871    -1.60586    -0.11874
H      1.58513    -2.50455     0.16132
O     -3.07138    -0.74830    -1.65305
H     -3.20164     0.21165    -1.70604
O     -3.30967    -0.99828    -0.26592
H     -2.83832    -1.83911    -0.16910
