 24
-909.9747643579398
O     -2.54169     0.06617     0.63700
H     -1.77731     0.14083     1.24892
O     -1.88147    -0.21016    -0.60243
H     -1.87599    -1.19069    -0.63236
O     -0.36688     1.87201    -0.94527
H     -1.03717     1.17482    -0.72202
O      0.26946     1.29890    -2.09287
H     -0.36442     1.46645    -2.79577
O      2.35738    -0.77851    -0.38924
H      2.31097    -0.28241     0.43939
O      0.97678    -0.84411    -0.71755
H      0.83513    -0.04145    -1.26156
O     -1.44045    -2.83048    -0.69363
H     -1.91273    -3.64742    -0.87792
O     -0.73368    -2.61213    -1.91970
H      0.06370    -2.19564    -1.56183
O      0.29842    -0.96004     2.17726
H      0.18637    -1.19807     1.24530
O     -0.40142     0.28450     2.23668
H      0.28931     0.92172     1.98242
O      1.51827     1.78850     1.03142
H      0.97520     1.98347     0.24211
O      1.65228     3.08293     1.61621
H      2.60778     3.18694     1.59241
