 24
-909.9718176888177
O     -0.95540    -1.78197     1.18406
H     -0.85123    -1.87942     0.22205
O     -2.36784    -1.84749     1.36276
H     -2.56354    -0.92512     1.57212
O      2.04067    -1.52933    -1.87386
H      2.33577    -2.37382    -2.22732
O      1.24869    -1.97147    -0.76962
H      1.56614    -1.37397    -0.07557
O      0.97342     0.97436     1.67889
H      1.58260     1.31075     1.00471
O      1.28003    -0.42639     1.66747
H      0.38841    -0.81967     1.71991
O     -1.49718     1.35497     0.66458
H     -0.61533     1.24354     1.08456
O     -2.36153     1.25746     1.80471
H     -2.84311     2.08533     1.73346
O     -0.36986     0.00070    -2.00168
H      0.19681    -0.75806    -2.19374
O     -1.50610    -0.65662    -1.42121
H     -1.82214     0.05572    -0.85290
O      1.85172     1.57084    -0.94676
H      1.01984     1.23240    -1.32511
O      1.65726     2.98260    -1.04235
H      2.34773     3.22486    -1.66681
