 40
-1516.6408350313766
O      0.63269     2.51314    -2.30460
H     -0.11489     1.89147    -2.17878
O      1.04978     2.73574    -0.95281
H      1.62467     1.95709    -0.79333
O     -0.16181    -2.77398     3.84706
H     -0.34274    -1.88864     3.49012
O      1.10751    -3.02096     3.23664
H      1.48201    -3.67160     3.83642
O      0.79216    -2.62559     0.06345
H      1.03600    -1.76909     0.47415
O     -0.22010    -3.12811     0.93681
H      0.29267    -3.31765     1.75150
O     -0.55205     2.32311     1.49250
H     -0.09443     2.61909     0.68409
O     -1.65355     3.22947     1.55648
H     -1.47802     3.67377     2.39113
O     -4.00780     0.49705     1.45455
H     -3.29683    -0.16680     1.52247
O     -3.52764     1.30093     0.36731
H     -3.27534     2.11498     0.82632
O      3.60171     1.26398    -3.19188
H      4.04463     1.66641    -3.94421
O      2.31535     1.00558    -3.74524
H      1.75474     1.63689    -3.23604
O     -1.08315     0.51063    -1.95877
H     -0.55568    -0.27985    -2.18640
O     -1.20280     0.31124    -0.54734
H     -2.11993     0.62320    -0.36452
O      1.21880    -0.05664     0.56706
H      0.37851     0.25494     0.16968
O      2.19426     0.41061    -0.36261
H      2.18454    -0.28044    -1.05564
O     -1.92411    -1.22083     1.76087
H     -1.36495    -1.89681     1.32679
O     -0.96632    -0.51958     2.56076
H     -0.99300     0.36803     2.16012
O      1.90256    -1.30807    -2.42572
H      1.98038    -0.64717    -3.14135
O      0.50185    -1.60309    -2.42034
H      0.45994    -2.16646    -1.62188
