 24
-909.970420627429
O     -1.76779    -2.33550    -0.64245
H     -1.75262    -1.67675    -1.35316
O     -0.89930    -1.71230     0.29842
H     -1.39650    -0.90057     0.52517
O     -1.96001     0.99817     1.77178
H     -2.73864     1.53702     1.94540
O     -2.10142     0.72537     0.37492
H     -1.41944     1.30647    -0.00891
O      1.70086    -0.59500    -1.16659
H      1.61950    -0.86598    -0.21827
O      2.20346     0.73745    -1.01757
H      3.13952     0.59392    -0.84568
O     -0.46510     0.97114    -3.15973
H     -0.83445     0.64726    -3.98654
O     -0.75099    -0.12538    -2.29303
H      0.14867    -0.40841    -2.03564
O      0.96011    -1.60017     2.25266
H      0.28962    -1.85976     1.59772
O      1.80095    -0.76626     1.45225
H      1.51213     0.12635     1.73451
O      0.39865     2.07179     0.44653
H      1.06920     1.56966    -0.06250
O      0.65924     1.64464     1.79326
H     -0.24600     1.39408     2.03905
