 20
-758.306242061202
O      0.42006    -1.57266     1.70931
H     -0.18387    -0.91841     2.09421
O     -0.40107    -2.18968     0.71027
H     -0.23363    -1.60706    -0.05623
O      2.84460    -0.36366    -0.45743
H      3.58276    -0.95882    -0.29395
O      2.40761    -0.02264     0.85755
H      1.78485    -0.75156     1.07562
O     -0.06034     1.76246     0.96865
H      0.78563     1.29515     1.03199
O     -0.93689     0.89458     1.70015
H     -1.58868     0.68425     1.01380
O     -0.06922    -0.39375    -2.58312
H     -0.80215     0.23115    -2.51575
O      0.30342    -0.44157    -1.20319
H      1.27821    -0.37424    -1.22968
O     -1.83902     1.66842    -1.42902
H     -1.10352     1.91891    -0.84842
O     -2.61536     0.87198    -0.52816
H     -3.41048     1.40665    -0.42738
