 20
-758.3011414053592
O     -2.74747    -1.09464     0.36403
H     -2.05021    -0.43880     0.19276
O     -2.05372    -2.31177     0.05099
H     -1.99966    -2.74172     0.90999
O      2.36414     1.88384     1.49003
H      2.78422     2.53624     0.92035
O      1.23468     2.60246     1.98953
H      0.50259     2.09787     1.60193
O      1.45667    -0.39611     0.46038
H      1.93828     0.34690     0.87994
O      1.94646    -0.32344    -0.88641
H      1.37387    -1.00806    -1.29049
O     -0.06112    -1.86848    -1.68496
H     -0.82630    -2.05543    -1.10251
O     -0.63588    -1.05714    -2.70475
H     -0.59927    -0.18422    -2.29338
O     -0.79495     0.74327    -0.16284
H      0.07232     0.29728     0.04613
O     -1.06357     1.39335     1.08100
H     -1.80022     1.96086     0.83704
