 36
-1364.9816053831328
O      1.46904     1.17078     0.36428
H      0.73361     0.99974    -0.27210
O      1.37929     2.59150     0.46888
H      0.68306     2.67264     1.15447
O     -3.23334    -0.16249    -1.09913
H     -4.06149    -0.63490    -0.96318
O     -2.53910    -0.46373     0.10640
H     -2.43455     0.42001     0.50579
O      0.92683     0.05936     2.69792
H      1.21911     0.47083     1.85457
O     -0.47518    -0.08243     2.45388
H     -0.49895    -0.92503     1.94600
O      2.42195    -2.73078     0.95539
H      2.71867    -2.30713     0.12842
O      3.06227    -1.92598     1.94507
H      2.30254    -1.51767     2.38466
O     -0.20242    -2.33099     1.07227
H      0.72754    -2.65805     1.05091
O     -0.45144    -2.10625    -0.31759
H     -1.27831    -1.59148    -0.25044
O     -0.78526     2.49649     2.04589
H     -0.70380     1.59938     2.43959
O     -1.86431     2.26104     1.13087
H     -1.54114     2.67884     0.31850
O     -0.55695     1.46995    -1.24361
H     -0.73034     1.14472    -2.16294
O     -0.77273     2.88494    -1.31197
H      0.10971     3.16898    -1.02500
O      1.38184    -0.80253    -1.74550
H      0.77174    -1.35935    -1.21396
O      2.65282    -0.99680    -1.12428
H      2.71864    -0.19431    -0.58342
O     -1.49534    -1.11007    -3.01361
H     -2.12014    -0.70740    -2.39072
O     -0.75305     0.03726    -3.44601
H      0.15195    -0.29830    -3.34530
