 40
-1516.6461105403887
O      2.97126     1.23729    -1.16598
H      2.27611     0.93105    -1.77835
O      3.72448     0.03117    -0.99524
H      3.89235     0.06192    -0.04156
O      2.42310     0.21129     3.06798
H      2.04349     1.09072     2.91109
O      2.95075    -0.07050     1.76802
H      2.26337    -0.66241     1.39703
O      0.89112     2.13359     1.98517
H      0.14274     1.50114     1.99583
O      1.03883     2.44028     0.60540
H      1.90370     2.05117     0.39818
O     -0.87380     0.22313     2.39658
H     -1.72325    -0.11531     2.03813
O     -0.22366    -0.98343     2.78544
H      0.56635    -0.62841     3.21508
O     -2.54188    -2.43822    -0.88253
H     -1.67198    -2.75603    -1.20322
O     -2.88673    -1.59598    -2.00617
H     -3.01880    -0.76322    -1.52014
O      0.08542     0.39844    -1.19855
H      0.14821     1.33275    -0.93234
O      0.78901     0.40843    -2.44961
H      0.37502    -0.38018    -2.86720
O     -2.30756     2.44976     1.09968
H     -2.94784     3.02157     1.53923
O     -1.64558     3.33289     0.19677
H     -0.77739     3.39478     0.62314
O      1.81885    -1.86637    -0.94310
H      2.56027    -1.23774    -1.05780
O      1.25288    -1.42681     0.29038
H      0.62207    -0.75698    -0.04331
O     -2.99872    -0.67898     1.05931
H     -2.85742    -1.52357     0.58568
O     -3.16383     0.19250    -0.07599
H     -2.81999     1.02590     0.29270
O     -0.53775    -1.76115    -3.25133
H     -1.49383    -1.62026    -3.10765
O     -0.32465    -2.78615    -2.26018
H      0.47466    -2.44797    -1.80426
