 36
-1364.977602943371
O     -0.92081     0.26712     1.50079
H     -0.87920    -0.06961     0.57279
O     -2.29355     0.00784     1.80330
H     -2.66910     0.85131     1.47780
O     -0.47366    -3.07770     1.28451
H     -0.02499    -2.59010     2.00160
O     -1.80128    -3.22327     1.78283
H     -2.15513    -2.32747     1.68732
O      4.14583     0.41330    -0.94275
H      3.29840     0.24248    -0.47608
O      3.78732     0.08780    -2.29298
H      4.27449    -0.72738    -2.43980
O      1.11399     0.26550    -2.43584
H      2.09578     0.28267    -2.44222
O      0.80215     1.52249    -1.83233
H     -0.13704     1.62465    -2.07735
O     -1.74289     1.50566    -2.66237
H     -2.02544     1.29038    -3.55796
O     -2.71162     0.82488    -1.85614
H     -2.15937     0.09845    -1.50546
O     -1.24712     2.80958     0.41056
H     -0.80133     2.30155     1.10310
O     -2.59406     2.32667     0.55424
H     -2.79262     2.05187    -0.35225
O      1.85880     0.08809     0.33321
H      1.88947    -0.30339     1.22814
O      1.80805     1.47972     0.65295
H      1.52884     1.81050    -0.21728
O     -1.10087    -2.13157    -1.14177
H     -0.85839    -2.52201    -0.27276
O     -0.77542    -0.76490    -0.88469
H      0.03280    -0.59912    -1.43952
O      0.48086    -1.25562     3.11498
H     -0.00709    -0.53622     2.64530
O      1.83132    -0.95737     2.76449
H      2.19047    -0.62457     3.59283
