 36
-1364.9724320963653
O      1.86405     3.02157    -1.37399
H      1.21450     2.44523    -1.81029
O      1.50615     2.83560    -0.00483
H      2.33119     2.47808     0.37550
O     -1.69784    -1.93139    -1.58222
H     -1.12963    -2.60913    -1.18254
O     -2.54479    -1.62348    -0.46450
H     -2.63083    -0.66190    -0.53619
O      1.11852    -1.30489    -0.61651
H      0.41843    -0.78209    -0.16794
O      2.05682    -0.28942    -0.96935
H      1.60841     0.17153    -1.69787
O      0.02240     1.25067    -2.28924
H     -0.86921     1.55015    -2.00490
O     -0.26676     0.27630    -3.28482
H     -0.64129    -0.44349    -2.75175
O      3.41055     1.53466     1.35407
H      3.57915     1.73714     2.27824
O      2.45159     0.48550     1.48780
H      2.39275     0.18398     0.54877
O     -0.62458     1.68354     1.08508
H      0.16037     2.07202     0.64348
O     -0.41239     0.29846     0.83297
H     -0.35558    -0.09792     1.73595
O     -2.82069     1.36725    -0.35635
H     -2.05289     1.61313     0.20342
O     -2.45783     1.92871    -1.61364
H     -2.99752     2.72438    -1.65563
O     -0.14684    -1.30568     2.93959
H     -0.81025    -1.98882     2.71522
O      1.01201    -1.90712     2.34316
H      1.58121    -1.13484     2.20802
O     -0.60458    -3.58721     0.59534
H      0.21800    -3.35162     1.04975
O     -1.57470    -3.12413     1.55145
H     -2.12517    -2.58073     0.95665
