 16
-606.6379212608764
O     -0.67278     0.32511    -0.72292
H     -0.47691     1.01252    -1.38620
O     -0.20235     0.99023     0.46376
H      0.53102     0.38589     0.71007
O      1.49052    -0.97038     1.11536
H      1.20630    -1.76405     0.62801
O      0.82619    -1.13157     2.36743
H     -0.07226    -1.33869     2.07334
O     -0.34620     2.61183    -2.12997
H     -1.16008     3.04754    -2.40319
O      0.15484     3.51095    -1.13017
H      0.04642     2.96654    -0.33610
O     -1.01749    -2.10294     0.41549
H     -0.95291    -1.28660    -0.11458
O      0.03816    -2.87136    -0.17894
H     -0.16743    -3.74261     0.17422
