 36
-1364.9767284937775
O     -2.27039    -0.17209     1.99592
H     -1.36214    -0.33077     2.34869
O     -2.05492     1.00582     1.22353
H     -2.55135     1.67228     1.71074
O      0.36566     1.93636     1.35083
H     -0.49760     1.62353     1.01001
O      0.09824     2.09796     2.73706
H      0.26796     1.19625     3.03964
O      0.19995    -0.81485     2.59719
H      0.80904    -0.81114     1.82790
O      0.16889    -2.19677     2.92570
H     -0.45226    -2.53142     2.24878
O      2.91278     1.98871    -0.48651
H      3.09646     1.89450    -1.43042
O      1.89956     3.00742    -0.52722
H      1.43093     2.79276     0.29933
O     -2.53704    -1.81010    -1.96364
H     -2.04239    -2.51611    -1.50804
O     -2.33478    -0.77454    -0.99050
H     -3.23078    -0.46775    -0.81010
O     -0.40382     0.85916    -1.95754
H     -1.06391     0.25329    -1.55411
O     -0.79205     2.13985    -1.46250
H      0.07219     2.57232    -1.38139
O      1.06506    -1.30661    -0.70588
H      1.63143    -1.03950    -1.46349
O      1.71592    -0.68717     0.40343
H      1.91015     0.20887     0.08007
O      2.43951    -0.35503    -2.78936
H      2.42942    -0.68980    -3.69099
O      2.01553     0.99542    -2.95682
H      1.08609     0.92185    -2.63980
O     -1.53457    -2.80913     0.95268
H     -1.91610    -1.93799     0.75684
O     -0.87263    -3.11885    -0.26930
H     -0.12327    -2.49115    -0.28239
