 20
-758.3129951493194
O     -0.85747    -2.72681     0.35095
H     -1.50438    -3.15016     0.92350
O     -0.94909    -1.38169     0.80912
H     -1.22759    -0.92789    -0.02070
O      1.69607    -0.72906     0.65403
H      0.79611    -0.98335     0.92284
O      1.75829     0.64528     1.07785
H      2.06391     1.05383     0.25328
O     -1.00025     1.26052    -1.39350
H     -1.06098     1.39425    -0.42674
O     -1.30192    -0.13774    -1.50977
H     -0.49222    -0.44522    -1.96353
O      1.32441    -0.39658    -1.97226
H      1.57233    -0.77289    -1.10901
O      1.62953     0.98750    -1.70307
H      0.71743     1.33048    -1.67228
O     -1.47259     1.09271     2.37914
H     -1.64316     0.18322     2.10222
O     -0.76912     1.58940     1.24670
H      0.15245     1.31404     1.42398
