 36
-1364.9743229948476
O      1.97196    -0.84408    -2.43710
H      2.47045    -0.92496    -1.60287
O      1.64182     0.54832    -2.46916
H      0.67688     0.50214    -2.52362
O     -0.13535    -3.00705     1.43713
H     -0.32560    -3.48284     0.61806
O     -0.24852    -1.67395     0.94612
H      0.68400    -1.35276     0.98587
O     -2.49825     0.28115     0.58066
H     -2.45216     1.25842     0.50809
O     -1.95338     0.05818     1.88846
H     -1.33026    -0.67971     1.68735
O     -1.17081     3.27064     2.78446
H     -1.54815     3.36467     3.66374
O     -0.47640     2.02839     2.87579
H     -1.15935     1.38368     2.57741
O     -1.24607    -0.89265    -1.66527
H     -1.30940    -0.73532    -0.70413
O     -1.34791     0.43279    -2.17998
H     -2.29083     0.53157    -2.36467
O     -1.39715     3.33311    -0.57115
H     -0.78859     2.57942    -0.59654
O     -2.35510     2.92493     0.40306
H     -1.96923     3.27181     1.23093
O      1.97430     1.65009    -0.07760
H      1.98527     1.37927    -1.02318
O      0.62899     1.28126     0.22587
H      0.51911     1.60305     1.13640
O      3.05764    -1.51625    -0.03310
H      2.55199    -2.34092    -0.09600
O      2.29603    -0.82598     0.96641
H      2.42799     0.10756     0.71446
O      1.53621    -3.62418    -1.32354
H      1.79347    -3.79978    -2.23612
O      0.12194    -3.51365    -1.39497
H     -0.01026    -2.56603    -1.56821
