 24
-909.9733994154391
O     -1.98304    -2.17472    -0.55199
H     -1.16252    -1.83646    -0.96486
O     -2.46411    -1.03081     0.16736
H     -2.00992    -1.12261     1.01788
O      1.34333    -1.65475    -0.50487
H      0.84892    -1.56997     0.33100
O      0.38185    -1.17084    -1.45252
H      0.45354    -0.20611    -1.29926
O      3.42572    -0.05919    -1.14179
H      2.77150    -0.73592    -0.88062
O      3.36929     0.80367     0.00163
H      4.23865     1.21524    -0.03502
O     -3.29673     2.16251     0.06618
H     -3.76345     2.59747    -0.65349
O     -2.22981     1.53707    -0.64408
H     -2.42558     0.58747    -0.50391
O      0.41802    -0.18421     2.40242
H      0.31424     0.45371     1.66962
O     -0.05440    -1.38920     1.78561
H      0.00657    -2.01485     2.51653
O      0.87364     1.32498    -0.72522
H      1.81422     1.32474    -0.44862
O      0.20517     1.71793     0.47943
H     -0.70169     1.84890     0.13594
