 36
-1364.9813803671689
O      1.20710     2.06162     0.62963
H      1.93897     1.52962     0.25144
O      0.71550     2.78478    -0.50174
H     -0.24299     2.60067    -0.46215
O     -1.02273     0.55786     2.71132
H     -1.91877     0.32394     2.41801
O     -0.31551     0.06400     1.56792
H      0.15292     0.86543     1.24031
O     -0.48177    -1.50957    -1.10073
H     -1.26960    -1.40472    -0.52233
O     -0.26732    -0.17859    -1.59286
H      0.71182    -0.15027    -1.69065
O     -2.43132     1.20399    -0.91928
H     -1.61196     0.79036    -1.26878
O     -1.96277     2.48491    -0.53044
H     -2.49181     3.06433    -1.08457
O      2.56034     2.56048    -2.41123
H      1.89364     2.82469    -1.74385
O      1.78949     2.64688    -3.60787
H      2.35363     3.21313    -4.14221
O     -2.58282    -1.46522     0.57623
H     -2.31021    -2.01819     1.33497
O     -3.11609    -0.30770     1.21716
H     -3.03695     0.32641     0.48637
O      1.66976    -2.05517     0.37004
H      0.85506    -2.05817    -0.17516
O      1.14744    -2.13261     1.69663
H      0.60564    -1.31300     1.76347
O      2.88966     0.18535    -0.38229
H      2.60694    -0.66532     0.01737
O      2.43661    -0.03465    -1.72914
H      2.69070     0.81285    -2.14537
O     -1.63222    -3.18415     2.38956
H     -1.77548    -3.64733     3.21971
O     -0.72484    -4.04810     1.70378
H      0.09021    -3.50271     1.73927
