 16
-606.6394567568783
O     -1.73408    -0.82580     0.71559
H     -1.59653    -0.02980     0.16791
O     -2.27634    -0.23209     1.89968
H     -3.09732    -0.72372     1.97954
O      1.54214    -0.37878     1.45562
H      1.15080     0.42255     1.07588
O      0.99788    -1.37726     0.59022
H      0.04937    -1.34303     0.80096
O      0.72451    -0.06324    -2.38112
H      1.07742     0.05494    -3.26780
O      1.93471    -0.20369    -1.61903
H      1.60027    -0.72828    -0.85919
O     -0.74111     1.27513    -0.61222
H     -0.11505     0.90051    -1.26703
O      0.15463     1.74244     0.40271
H     -0.47228     1.97946     1.09035
