 24
-909.9727087858442
O      0.56293    -2.44296     0.26559
H      0.75286    -1.65312    -0.27410
O     -0.75500    -2.15415     0.75366
H     -0.51666    -1.82417     1.64839
O     -2.09515     0.67827     0.50428
H     -2.94157     1.04967     0.24369
O     -1.80774    -0.14240    -0.63140
H     -1.52108    -0.97703    -0.19070
O      1.14815    -0.14584    -0.96918
H      1.02156     0.54276    -0.29046
O      1.65206     0.62608    -2.06056
H      0.85958     0.68121    -2.61583
O     -0.58684     1.14755    -3.58731
H     -0.44967     1.90618    -4.15960
O     -1.44194     1.71658    -2.58927
H     -1.49061     0.96066    -1.98638
O      0.54921    -1.17036     2.79638
H      0.65448    -0.22439     2.60567
O      1.86523    -1.64861     2.50677
H      1.67058    -2.14842     1.69564
O      0.67776     1.45285     2.21222
H      1.43498     2.03109     2.33822
O      0.37865     1.69723     0.84150
H     -0.57773     1.51830     0.81854
