 28
-1061.6390289542778
O      1.41981    -1.28210     0.12119
H      1.03269    -1.21992    -0.77833
O      1.29886    -2.68253     0.39716
H      0.33973    -2.73645     0.52506
O      0.10297     1.18000    -0.04596
H     -0.25500     1.83926     0.58727
O      1.33339     1.75121    -0.49656
H      1.91655     1.48201     0.23716
O     -2.63999     0.20717    -1.10616
H     -2.85746     0.90621    -0.47026
O     -1.69000     0.86390    -1.95226
H     -0.74844    -0.48885    -3.20959
O     -1.08173    -0.74389     1.60939
H     -0.17781    -0.53040     1.31143
O     -1.50062    -1.60841     0.54198
H     -1.83786    -0.98635    -0.13638
O     -2.39073     1.54597     1.42199
H     -1.94934     0.67886     1.58437
O     -1.34855     2.46911     1.72457
H     -1.39536     2.54428     2.68300
O      0.12154    -1.70869    -2.12140
H      0.18477    -2.60895    -2.45895
O      0.11739    -0.91385    -3.30463
H     -0.92531     0.95995    -1.34475
O      3.50921    -0.03731     1.25256
H      2.79003    -0.55019     0.83212
O      2.74025     1.07685     1.73747
H      3.44286     1.68394     1.98971
