 24
-909.9711349970717
O     -0.98526     0.61184     0.39267
H     -1.32067    -0.20866    -0.01006
O     -2.12261     1.15867     1.06518
H     -1.86540     0.97544     1.98053
O     -0.12923    -2.71940    -0.54862
H     -0.49707    -3.56503    -0.27791
O     -1.30418    -1.99774    -0.91902
H     -1.05409    -1.69025    -1.81188
O      1.05964     2.03093    -1.12328
H      0.13679     1.81256    -0.93125
O      1.56254     0.76695    -1.55104
H      1.69159     0.28708    -0.70989
O     -0.37391    -0.43886    -2.92384
H      0.39914    -0.00647    -2.48392
O     -1.37298     0.57575    -2.78026
H     -1.29597     1.03250    -3.62464
O      1.57842    -0.92999     0.50957
H      0.98133    -1.64738     0.22382
O      2.07115    -1.41581     1.75809
H      1.79081    -0.69539     2.33783
O      0.80687     1.14602     2.73767
H      0.46449     1.13852     1.83059
O     -0.40619     1.08747     3.49034
H     -0.46270     1.98659     3.83062
