 16
-606.6429688139807
O     -1.99949     0.25188     0.63122
H     -2.80213     0.77674     0.57038
O     -1.02570     1.26860     0.84917
H     -0.35131     0.76572     1.34703
O      1.74385    -0.61785     0.95235
H      1.62317     0.01340     0.20849
O      1.02733     0.03487     2.00288
H      1.74031     0.41472     2.52622
O      1.16520     0.69331    -1.30764
H      0.48289     0.07091    -1.63259
O      0.45934     1.93911    -1.33880
H     -0.14036     1.82789    -0.58444
O     -0.77345    -1.13273    -1.36187
H     -1.34330    -0.77451    -0.65808
O     -0.21473    -2.28910    -0.74473
H      0.50512    -1.91929    -0.21365
