 32
-1213.3063563842752
O      2.94940     1.88660    -1.27573
H      2.66904     1.23166    -1.93351
O      4.06913     1.26062    -0.65687
H      3.64687     0.64882    -0.03602
O     -0.92716    -2.09865     0.09712
H     -0.50904    -1.49568    -0.55884
O     -2.26059    -1.58012     0.18119
H     -2.50903    -1.49025    -0.76366
O     -2.57061     0.86483     1.18504
H     -2.43098    -0.08494     0.96887
O     -3.29167     1.29536     0.03688
H     -4.20266     1.30702     0.34904
O      2.23139    -0.67716     0.89898
H      1.78263     0.06132     1.35271
O      2.86940    -1.40441     1.93646
H      2.11266    -1.87752     2.31093
O     -0.08008     1.80240    -0.08380
H     -0.74249     1.73593     0.62107
O      1.13003     1.93208     0.67369
H      1.77262     2.10525    -0.04496
O      1.51109    -0.51195    -1.65702
H      1.73300    -0.69765    -0.72293
O      0.09569    -0.36452    -1.59897
H     -0.02358     0.50371    -1.14539
O      0.11941    -1.59605     2.56725
H     -0.26491    -1.89712     1.72144
O     -0.05296    -0.17310     2.43672
H     -0.65102     0.03131     3.16808
O     -2.54642    -0.92715    -2.38403
H     -1.61918    -0.92181    -2.65755
O     -2.86836     0.45997    -2.49681
H     -2.94502     0.71684    -1.56434
