 36
-1364.976346337807
O      1.37607     1.81639    -0.46975
H      0.69189     2.45544    -0.72670
O      1.47741     1.04264    -1.67577
H      2.22832     0.45995    -1.45469
O     -0.20856     1.74371     1.98947
H      0.54503     1.29557     2.43066
O     -0.70621     0.65614     1.20999
H     -0.18217     0.67497     0.38230
O     -2.55319    -1.70409     0.61084
H     -3.12810    -0.91714     0.65532
O     -1.81807    -1.64107     1.83794
H     -1.31857    -0.81243     1.70951
O     -0.74527     1.79252    -2.98821
H      0.14463     1.48681    -2.74627
O     -1.06790     2.45755    -1.74669
H     -1.96746     2.11009    -1.58520
O     -1.76474    -0.81001    -2.31059
H     -1.31776    -0.12997    -2.83238
O     -0.75991    -1.07760    -1.31620
H     -1.30699    -1.43618    -0.58313
O     -3.35472     1.09235    -1.19308
H     -3.04390     0.23433    -1.53583
O     -3.46755     0.84412     0.20970
H     -2.65176     1.24011     0.54715
O      2.96110     0.66960     1.70941
H      2.49296     1.36704     1.22708
O      1.93720     0.22210     2.60281
H      1.60211    -0.57955     2.14112
O      3.48472    -0.54556    -0.72447
H      3.52830    -0.33143     0.22522
O      3.02560    -1.89379    -0.69834
H      3.79884    -2.38015    -1.00183
O      0.74651    -2.97931     1.80366
H     -0.22168    -2.93267     1.81882
O      1.01434    -1.76401     1.10438
H      1.60814    -2.05070     0.38586
