 32
-1213.3146704356593
O     -1.20763    -2.54427     0.73063
H     -2.05159    -2.23226     0.31863
O     -1.22342    -1.85543     1.99171
H     -0.36354    -1.40867     1.99316
O      0.71594    -1.69918    -0.89234
H      0.00745    -2.04621    -0.29724
O      0.04024    -0.63215    -1.56017
H      0.69498     0.09149    -1.50851
O     -2.31249     0.85692     1.98984
H     -2.33975    -0.09638     2.16793
O     -1.70045     0.87582     0.70905
H     -0.76482     0.64318     0.91880
O     -0.98190     2.27172    -2.05679
H     -1.54653     2.81815    -2.61710
O     -0.79851     3.11206    -0.90884
H     -1.33191     2.63930    -0.24988
O      2.01327     1.19977    -1.19007
H      2.76536     0.67762    -0.84655
O      1.92835     2.24007    -0.21904
H      1.19546     2.76429    -0.57679
O      1.50986    -0.20783     2.40400
H      2.20703    -0.70058     1.94208
O      0.83905     0.35446     1.27575
H      1.40483     1.10967     0.99655
O      3.78331    -0.53294    -0.26128
H      4.39257    -1.09920    -0.74428
O      2.97593    -1.47147     0.43530
H      2.18294    -1.52951    -0.14516
O     -3.10655    -1.07295    -0.36913
H     -2.74350    -0.19970    -0.10600
O     -2.58890    -1.28475    -1.68340
H     -1.66551    -0.98211    -1.62224
