 16
-606.6391027876207
O     -2.52217     0.44232     1.00005
H     -3.02023     1.26368     1.04345
O     -1.26560     0.91228     0.50247
H     -0.66208     0.76232     1.25215
O      1.13175     0.69182     1.88440
H      1.47615     0.39449     2.73091
O      1.20279    -0.52415     1.13583
H      1.61038    -0.19557     0.30737
O      1.04533     1.50095    -1.40619
H      0.26206     1.38444    -0.84895
O      1.58218     0.17845    -1.42183
H      0.84907    -0.34153    -1.80911
O     -0.67814    -1.19333    -1.78258
H     -1.57674    -0.93670    -1.54157
O     -0.36556    -2.24231    -0.86654
H     -0.02001    -1.74661    -0.10681
