 32
-1213.30766021269
O      1.83570    -1.95096    -2.53565
H      2.25894    -1.64164    -3.33989
O      0.61849    -1.20623    -2.59454
H      0.13030    -1.58358    -1.83543
O      1.08965    -1.69574     3.39482
H      1.29111    -2.01134     4.28078
O      2.30735    -1.01432     3.05747
H      2.22134    -1.01154     2.07449
O      0.66541     1.43084    -1.97140
H      0.72934     0.47852    -2.17746
O      0.91438     1.43588    -0.56515
H      0.18031     1.96481    -0.19369
O     -0.30212     0.29786     2.36189
H      0.16073    -0.42259     2.83902
O     -1.45779    -0.38717     1.85205
H     -2.01340     0.39542     1.67188
O      1.78597    -0.80618     0.50689
H      1.50039     0.08344     0.19820
O      3.00169    -0.96122    -0.22513
H      2.65449    -1.45127    -0.98238
O     -2.48383     1.38357    -1.43130
H     -2.23428     0.44581    -1.48442
O     -1.89071     1.94077    -2.59633
H     -0.94613     1.91529    -2.35782
O     -2.15936     2.05366     1.08345
H     -2.31821     1.98378     0.11737
O     -0.87483     2.68394     1.11352
H     -0.48607     2.19378     1.85025
O     -0.92072    -1.70321    -0.45454
H     -1.01436    -1.25541     0.42277
O     -2.06908    -1.26474    -1.17319
H     -2.70586    -1.96643    -1.00122
