 28
-1061.6398747761666
O      0.85543    -1.91095    -2.33904
H      1.29516    -2.27701    -1.55712
O      1.39018    -0.58516    -2.32351
H      1.92274    -0.56284    -3.12822
O      2.04779    -2.55386     1.39576
H      1.38937    -2.45916     2.09744
O      1.47472    -1.73640     0.38747
H      1.97708    -0.89668     0.46905
O      0.13219     1.72491    -0.24979
H     -0.59905     2.30934     0.02237
O     -0.38413     1.19632    -1.47714
H     -0.27752    -1.60520     0.57708
O     -3.08596    -0.27293     0.02102
H     -2.55546    -0.97232     0.45223
O     -2.59181    -0.35205    -1.32353
H     -1.82566     0.24906    -1.29901
O     -2.18135     1.77434     1.45616
H     -2.65025     1.16364     0.84110
O     -2.08841     2.95056     0.65160
H     -2.33680     3.62692     1.28718
O     -0.57208    -0.70662     2.20044
H     -0.96493     0.14648     1.95859
O     -1.06081    -1.55982     1.15748
H      0.32064     0.56233    -1.71972
O      2.79299     1.31795    -0.47761
H      1.87365     1.61210    -0.35245
O      2.91870     0.46729     0.66542
H      3.84107     0.58630     0.91398
