 36
-1364.9765536773577
O      1.60106     2.71419     1.11456
H      2.10959     2.21113     0.45910
O      1.98267     2.17021     2.37772
H      2.15233     1.22666     2.17901
O     -1.52442    -1.53017     1.76617
H     -2.05129    -1.38858     0.96676
O     -0.52266    -0.54326     1.56083
H     -0.79767     0.20765     2.15215
O     -1.83694     2.54885     2.74952
H     -2.01750     2.27806     1.83423
O     -0.86055     1.56737     3.12512
H     -0.03696     2.07984     3.15784
O      2.63583    -0.89075     0.47034
H      2.05575    -1.64447     0.24396
O      2.14290    -0.50941     1.75842
H      1.17169    -0.61638     1.64614
O     -0.81535     2.51009    -0.48162
H     -0.26960     2.69652     0.29976
O     -1.95392     1.85838     0.08907
H     -2.12118     1.15593    -0.57501
O     -1.72706    -1.27677    -1.09754
H     -0.78623    -1.05533    -0.95105
O     -2.23416    -0.11730    -1.74814
H     -1.99232    -0.28283    -2.67548
O      0.66015     0.56545    -1.55447
H      0.12924     1.34612    -1.27887
O      1.99785     1.01682    -1.31699
H      2.33286     0.30206    -0.73887
O     -0.42588    -0.98764    -3.81555
H      0.23099    -0.59868    -3.22100
O     -0.30879    -2.36651    -3.49326
H      0.06867    -2.73157    -4.30162
O      0.55555    -2.46142    -0.05123
H     -0.03738    -2.59170     0.70730
O      0.40559    -3.65315    -0.81365
H      0.05794    -3.27261    -1.63335
