 32
-1213.3125061591345
O      2.15578    -0.39928    -0.93860
H      2.96019    -0.44384    -0.37784
O      2.63455    -0.67418    -2.26202
H      2.21974     0.06863    -2.72476
O     -0.93101    -2.67043    -0.22528
H     -1.51795    -2.46192     0.54080
O      0.33478    -2.29408     0.33031
H      0.80889    -1.98023    -0.45365
O     -3.33523    -0.79901     1.21657
H     -3.01451    -0.61023     0.31577
O     -2.26301    -1.56409     1.76478
H     -1.70910    -0.86426     2.16523
O     -1.69433     2.48880    -0.55204
H     -0.73811     2.45060    -0.80405
O     -1.59346     2.54592     0.86581
H     -2.03757     3.37246     1.07113
O      3.25043     0.74390     1.55307
H      2.32272     0.49885     1.72472
O      3.76937    -0.52574     1.14804
H      4.67531    -0.48103     1.46713
O      0.38161     1.41170    -2.47526
H     -0.24777     0.68835    -2.28190
O      0.74850     1.82605    -1.16018
H      1.23370     1.03760    -0.83812
O     -0.54833     0.41332     2.21326
H     -0.87230     1.13835     1.65161
O      0.64933     0.04997     1.53388
H      0.44277    -0.85783     1.22141
O     -1.36653    -0.53654    -1.82112
H     -1.29983    -1.39359    -1.34619
O     -2.56410     0.00641    -1.25534
H     -2.30016     0.93229    -1.10211
