 36
-1364.9807960532987
O      2.18170     1.27745     2.49313
H      2.47051     1.89288     3.17068
O      0.99304     0.75906     3.08006
H      1.17121    -0.21270     3.05777
O      1.63904    -1.70103    -0.19777
H      1.44709    -1.80089    -1.15064
O      0.46981    -0.93721     0.12576
H      0.80784    -0.02019     0.05221
O     -0.15231    -2.34179     2.82298
H     -0.69347    -1.54308     2.70513
O      1.17796    -1.84203     2.64868
H      1.37974    -2.10958     1.73950
O      0.61554    -1.31779    -2.62298
H      1.02459    -0.46825    -2.87166
O     -0.76139    -0.93212    -2.60850
H     -1.16997    -1.61948    -2.05145
O     -1.87063    -0.24740     2.30958
H     -2.34353    -0.62759     1.53991
O     -1.38134     0.99189     1.77974
H     -0.53176     1.06817     2.25819
O     -1.22807     1.49876    -1.58873
H     -1.04069     0.65547    -2.05093
O     -2.30691     1.13898    -0.73006
H     -1.91447     1.25298     0.15849
O      1.78952     1.07607    -2.89308
H      1.81040     1.52092    -2.02977
O      1.16687     2.03809    -3.72871
H      1.86097     2.17663    -4.37595
O      1.56583     1.48418    -0.10680
H      1.94002     1.50459     0.79417
O      0.63730     2.57255    -0.02832
H     -0.05835     2.24766    -0.64462
O     -2.93989    -1.34673     0.05698
H     -2.89459    -0.55217    -0.50693
O     -2.00347    -2.22087    -0.56724
H     -1.22239    -2.10879    -0.00169
