 24
-909.9774258524935
O     -1.23659     1.64922     0.36840
H     -1.21295     1.05971    -0.41254
O     -2.42435     1.14697     1.00217
H     -2.04553     0.49014     1.61965
O      1.64279    -1.29950    -1.90821
H      2.23564    -2.05646    -1.86781
O      0.67600    -1.61245    -0.91395
H      0.96696    -1.03262    -0.17179
O      1.95166     1.37958    -1.78121
H      1.94942     0.41691    -1.91658
O      3.07586     1.50971    -0.91456
H      3.36767     2.40394    -1.11439
O     -2.59044    -1.02193    -0.71068
H     -3.04660    -0.28699    -0.27526
O     -1.60040    -0.27486    -1.43022
H     -0.84628    -0.89263    -1.39712
O     -1.16382    -1.93291     1.45262
H     -1.73743    -1.65420     0.71828
O     -1.29785    -0.84001     2.36739
H     -0.37817    -0.54290     2.44687
O      1.54842     0.16278     0.82976
H      2.10783     0.83188     0.38528
O      0.89135     0.91884     1.85306
H      0.15901     1.32690     1.34567
