 40
-1516.6394708606113
O      3.86878    -0.33677     0.04939
H      3.31871    -0.90111    -0.52372
O      3.41440    -0.72104     1.34499
H      4.17942    -1.18318     1.70577
O     -0.63076     1.45681     2.18374
H     -1.17124     0.66949     2.36762
O     -0.05079     0.99802     0.95522
H      0.62995     1.66545     0.76308
O     -0.32058     4.56978     1.06198
H     -0.82070     5.37733     1.20541
O     -1.38190     3.64792     0.79656
H     -1.23343     2.98729     1.50016
O      1.73404     1.52433    -1.72977
H      0.80655     1.85668    -1.70482
O      2.24093     1.99503    -0.47352
H      2.96985     1.37340    -0.33114
O     -2.30095    -0.07918    -1.95359
H     -1.40994    -0.46598    -2.01447
O     -2.45240     0.09931    -0.54485
H     -1.72442     0.71317    -0.34239
O      0.39498    -1.34714    -1.45471
H      0.44786    -1.47569    -0.48145
O      1.77023    -1.13171    -1.77384
H      1.76490    -0.16482    -1.93607
O     -1.57989    -1.07289     2.33485
H     -0.71947    -1.47940     2.15473
O     -2.41687    -1.75329     1.40312
H     -2.52568    -1.09706     0.68170
O      1.00400    -1.90050     1.05133
H      1.83844    -1.44498     1.27404
O      1.41957    -3.27125     1.01110
H      0.54188    -3.66979     0.82720
O     -1.32360    -3.71909    -0.98215
H     -0.51841    -3.26990    -1.27713
O     -1.09147    -3.86355     0.41617
H     -1.70020    -3.19663     0.79273
O     -0.81242     2.29958    -1.52653
H     -1.12792     2.94853    -0.86700
O     -1.70747     2.48421    -2.63244
H     -2.14894     1.62114    -2.58381
