 20
-758.3015546512378
O     -1.62310    -1.81716     0.31420
H     -1.68165    -0.97645     0.79577
O     -0.63506    -2.54928     1.04826
H      0.17858    -2.15934     0.70006
O      2.38643     1.93543     1.28264
H      3.15007     2.37224     1.66905
O      1.53343     1.78222     2.42340
H      0.68006     1.97335     2.00537
O      2.30914    -0.29705    -0.36678
H      2.30979     0.48448     0.21165
O      0.88976    -0.51375    -0.47463
H      0.77445    -0.79373    -1.39701
O     -1.52662     0.05059    -2.44319
H     -1.96134     0.10256    -3.30104
O     -0.94857    -1.25283    -2.48855
H     -1.38264    -1.65210    -1.71825
O     -0.51275     1.55999     0.37569
H     -0.01968     0.78041     0.04673
O     -1.83494     1.02924     0.48751
H     -2.08003     0.93489    -0.44228
