 20
-758.299060255751
O      0.43481    -2.95257     1.21212
H      1.23374    -2.40743     1.24403
O      0.46102    -3.30651    -0.17232
H      0.07728    -4.18869    -0.15456
O      0.63945    -0.31884    -1.46797
H      0.54458     0.62316    -1.24957
O     -0.43608    -0.83798    -0.66247
H     -0.18435    -1.77672    -0.58084
O     -0.70752     1.55750     0.91698
H     -1.02179     0.73976     0.50015
O      0.46551     1.83535     0.15143
H      1.15591     1.41729     0.69126
O      2.56782     0.28673     1.10748
H      3.44814     0.56634     0.84018
O      2.44845    -0.96583     0.43221
H      1.87510    -0.73553    -0.32885
O     -3.34211     1.73741    -0.91323
H     -3.37014     2.16329    -1.77629
O     -3.19961     2.86808    -0.04039
H     -2.31912     2.69981     0.32229
