 40
-1516.6397858756109
O      2.69208     0.26685    -0.16066
H      2.19589    -0.47861    -0.55994
O      2.32260     1.35951    -1.01705
H      2.28858     2.08422    -0.37768
O      1.80279     2.87537     1.39201
H      0.99711     2.35341     1.54253
O      1.26146     4.10290     0.92882
H      1.40322     4.69641     1.67337
O      2.09449    -0.02790     2.74983
H      2.59723     0.24396     1.96702
O      1.20535    -0.97037     2.15913
H      0.47618    -0.39429     1.83829
O      0.14780     1.22546    -2.54835
H      1.05562     1.30550    -2.20382
O     -0.30909     0.19464    -1.66607
H     -0.63702    -0.49557    -2.28592
O     -3.46965    -1.80240     0.39170
H     -2.75050    -2.22574     0.89108
O     -2.70293    -0.94301    -0.44982
H     -2.41615    -0.21762     0.15122
O     -0.22494     0.83321     0.85767
H     -0.13505     0.53849    -0.07804
O     -1.61415     1.17735     0.88120
H     -1.58353     2.02842     0.38553
O     -0.84353     3.63446    -1.69188
H     -0.62901     2.73451    -1.99334
O     -1.02395     3.44378    -0.29159
H     -0.18926     3.79642     0.06659
O     -1.13257    -2.68081     1.37644
H     -0.69449    -3.14378     0.64276
O     -0.61675    -3.32793     2.53399
H      0.03924    -2.67073     2.80911
O     -1.15140    -1.96508    -2.95520
H     -1.81522    -2.39286    -3.50462
O     -1.24542    -2.67152    -1.71933
H     -1.87969    -2.07827    -1.22568
O      1.44999    -2.85061     0.23188
H      1.50280    -2.19869     0.95561
O      1.47151    -1.99182    -0.90886
H      0.78127    -2.37846    -1.46939
