 36
-1364.972489241527
O      1.51228     1.01117     0.69708
H      1.13318     0.10955     0.71710
O      1.58803     1.35215     2.08335
H      0.74751     1.82309     2.23073
O     -1.21033     3.60853     1.99691
H     -1.82732     4.03042     2.60210
O     -0.91667     2.38197     2.65706
H     -1.49699     1.74010     2.18623
O     -0.33473    -1.32797     0.68939
H     -0.68238    -1.94555     0.00859
O     -0.03671    -2.16912     1.80077
H      0.93746    -2.12444     1.74484
O      2.59398    -1.88196    -1.78711
H      3.34441    -2.19078    -2.30530
O      1.48574    -2.56510    -2.37045
H      0.96781    -1.81480    -2.71613
O     -1.92953    -2.60810    -0.96572
H     -2.69143    -3.15577    -0.75314
O     -2.50501    -1.49152    -1.63752
H     -2.49875    -0.79887    -0.93863
O     -2.18435     0.38234     1.42772
H     -1.52291    -0.34386     1.34488
O     -2.51484     0.59365     0.04915
H     -1.90951     1.31959    -0.21271
O      2.38352    -1.69824     0.84634
H      2.43125    -1.79845    -0.12730
O      3.62535    -1.06551     1.15928
H      3.32297    -0.16284     1.32482
O     -1.02611     2.73017    -0.50518
H     -1.06283     3.26556     0.31089
O      0.34634     2.84594    -0.86731
H      0.77941     2.18313    -0.28814
O     -0.09298     0.28166    -1.95536
H      0.01763     1.16515    -2.34060
O     -0.26345    -0.55946    -3.10858
H     -1.12130    -0.95272    -2.88324
