 32
-1213.31175566493
O      3.24439    -0.24478     0.70054
H      3.18751    -0.90548    -0.00543
O      1.92386     0.28474     0.60109
H      1.57039     0.11437     1.50495
O     -0.04284    -1.90557     0.43648
H      0.56891    -1.35535    -0.09241
O     -1.03829    -2.27316    -0.51799
H     -1.77258    -1.68564    -0.26440
O     -0.91747     2.57461    -0.89707
H      0.04490     2.67821    -1.03744
O     -1.11756     1.42915    -1.73207
H     -1.95952     1.09092    -1.38013
O     -0.67396     1.60026     1.65247
H     -0.99386     2.06076     0.85655
O     -1.85631     0.94987     2.13568
H     -1.44202     0.33692     2.76542
O      1.60670     1.98896    -1.43076
H      1.81296     1.41062    -0.66878
O      1.39206     1.01412    -2.46014
H      0.41603     0.99639    -2.47237
O      1.94205    -1.50037    -1.70699
H      1.90644    -0.57950    -2.04125
O      1.16573    -2.17832    -2.70241
H      0.41760    -2.48479    -2.17208
O     -0.20588    -1.10073     2.95045
H     -0.18950    -1.48284     2.04698
O      1.09456    -0.52082     3.01932
H      1.58058    -1.14587     3.57052
O     -3.35842     0.36095    -0.71478
H     -4.29649     0.51981    -0.57903
O     -3.04992    -0.56119     0.32501
H     -2.63803     0.03614     0.99866
