 36
-1364.9774709766348
O      3.32464     1.31962     1.27889
H      3.80642     2.10015     1.56347
O      2.05614     1.54584     1.88648
H      1.80661     0.62676     2.14212
O      0.44097    -2.54937     0.48582
H     -0.37802    -2.93434     0.83339
O     -0.06571    -1.75051    -0.58183
H      0.48045    -0.93345    -0.50468
O     -0.28297    -0.57633     2.84496
H     -0.55024     0.17293     2.26630
O      1.05592    -0.84536     2.42994
H      0.92510    -1.50302     1.70922
O      0.97336    -0.25449    -3.33192
H      1.60742    -0.55257    -2.65716
O      0.08544    -1.35403    -3.51106
H     -0.42030    -1.35176    -2.68285
O     -1.13898     1.47205     1.38665
H     -1.69441     1.25229     0.60053
O     -0.29014     2.50183     0.87204
H      0.57643     2.19415     1.19494
O     -2.71373    -0.56685    -1.00613
H     -2.60015    -0.90786    -0.10788
O     -2.45712     0.81993    -0.80655
H     -1.94338     1.05113    -1.60944
O     -0.70245     1.66358    -2.65300
H     -0.11415     0.97633    -3.04983
O      0.26641     2.40477    -1.88944
H     -0.28595     2.77207    -1.18375
O      2.76178     0.22260    -1.10342
H      3.23460     0.55860    -0.32773
O      1.43913     0.42489    -0.60292
H      1.15018     1.24396    -1.07131
O     -2.85006    -1.95572     1.62772
H     -3.63016    -2.43160     1.92554
O     -1.79686    -2.69237     2.24263
H     -1.30542    -1.95892     2.66532
