 40
-1516.6390858381951
O      1.07679     3.76930    -1.74702
H      0.63341     4.43989    -2.27543
O      0.64987     4.08229    -0.42284
H     -0.07649     3.41884    -0.30705
O      2.19218    -1.62877    -0.35678
H      2.31733    -0.91346    -1.01664
O      1.50960    -0.92972     0.68787
H      0.57151    -0.95016     0.38179
O     -0.92322    -1.05437    -0.39649
H     -0.86132    -1.30426    -1.35638
O     -2.12072    -0.27575    -0.36455
H     -2.64555    -0.82512     0.23351
O     -1.05665     2.15874     0.02303
H     -1.43653     1.25781    -0.12334
O     -2.06618     2.80323     0.79774
H     -1.90755     2.33245     1.63719
O     -0.41236    -1.92366    -2.79596
H     -0.11710    -2.79340    -2.48792
O      0.83502    -1.33660    -3.18336
H      0.77255    -0.44242    -2.79542
O      1.01171     1.09816    -2.06493
H      1.02481     2.07932    -1.98711
O      2.33257     0.73005    -1.65235
H      2.41322     1.18234    -0.78609
O      1.64754     2.27631     1.65773
H      1.56669     3.04311     1.07029
O      2.57076     1.45606     0.94014
H      2.19906     0.55671     1.08315
O     -1.02014     1.26956     2.71933
H     -0.12829     1.58648     2.51116
O     -0.88883    -0.06069     2.22099
H     -1.60869    -0.53239     2.65545
O     -0.25698    -3.74636     0.43893
H      0.21099    -4.32451     1.05188
O      0.56754    -3.77443    -0.72443
H      1.20023    -3.04592    -0.53746
O     -2.65798    -2.55932     1.28718
H     -1.85600    -3.03490     1.01090
O     -2.39234    -2.38747     2.67655
H     -3.26135    -2.55955     3.04797
