 36
-1364.9697150736192
O      2.71265     2.02229     0.15230
H      3.62670     2.11737    -0.13491
O      2.82912     1.43346     1.43931
H      2.62427     0.49490     1.25468
O     -2.91262    -1.84730    -0.39866
H     -2.88027    -0.96947    -0.81170
O     -1.53097    -1.98749    -0.09144
H     -1.47295    -1.50931     0.76615
O     -1.07778    -0.82455     2.25843
H     -0.67652     0.06851     2.17468
O      0.00458    -1.57354     2.82414
H     -0.24605    -2.48310     2.57521
O      2.11880    -1.17861     1.22881
H      1.36506    -1.25170     1.85805
O      1.50077    -1.55967     0.00006
H      1.31547    -2.50502     0.13193
O     -0.03181     1.58136     1.75801
H      0.75388     2.08555     2.01753
O     -1.04186     2.57567     1.59963
H     -1.32272     2.37542     0.69530
O     -2.09811     0.57749    -1.28280
H     -1.15264     0.35503    -1.30357
O     -2.04984     2.00604    -1.18522
H     -1.76345     2.25236    -2.09129
O      0.82002     1.14136    -1.48752
H      1.40737     1.53304    -0.80845
O      1.69014     0.16535    -2.07064
H      1.69708    -0.49192    -1.35247
O      0.25247     2.97602    -3.34073
H      0.48250     2.25271    -2.72243
O     -1.10339     2.60202    -3.63771
H     -1.39185     3.35239    -4.16540
O      0.07716    -3.98477     0.43531
H     -0.62692    -3.38529     0.09184
O     -0.28589    -4.04703     1.81329
H     -0.80354    -4.85718     1.85865
