 32
-1213.3032660253905
O     -1.82670    -0.32589     1.68989
H     -0.91479    -0.66482     1.73883
O     -2.15647    -0.53184     0.31628
H     -2.01642    -1.49068     0.18275
O      0.31305     0.01670    -3.60793
H     -0.25345     0.47721    -2.95629
O      0.47701    -1.26206    -3.00376
H     -0.43320    -1.57254    -2.90015
O     -1.52162    -2.90616    -1.80592
H     -1.45775    -3.82557    -2.08174
O     -1.18887    -2.99356    -0.41980
H     -0.23699    -2.76481    -0.42517
O     -1.22604     1.00405    -1.66768
H     -1.42749     0.39975    -0.92025
O     -0.44390     2.05034    -1.08193
H     -0.90217     2.23804    -0.23552
O      2.11219     2.48839     0.56393
H      2.99076     2.36647     0.93549
O      2.03694     1.37776    -0.33474
H      1.20428     1.59374    -0.80352
O      0.66463    -0.92551     0.27641
H      1.40251    -0.34223     0.52478
O      1.27471    -1.90076    -0.55926
H      1.16814    -1.49922    -1.44846
O      1.68707     0.25185     2.61692
H      1.08065     0.99996     2.75138
O      0.86336    -0.82011     3.07739
H      1.42795    -1.22520     3.74312
O     -1.20816     2.29286     1.47010
H     -1.54120     1.41102     1.73654
O      0.00226     2.41165     2.22195
H      0.64351     2.61668     1.51593
