 36
-1364.9703373862653
O      3.63893    -1.08022     0.50901
H      2.81299    -1.01646    -0.00936
O      4.22804     0.18585     0.17810
H      5.16686    -0.01969     0.22098
O     -2.32420    -1.03642     3.02894
H     -2.82088    -1.74112     3.45596
O     -2.87726    -1.02776     1.71322
H     -2.29337    -1.67398     1.24255
O      2.48088     1.59712     1.59738
H      3.19676     1.05905     1.19806
O      2.49736     2.74217     0.73698
H      1.65866     3.15795     0.96907
O     -2.72692     0.30063    -1.06360
H     -2.43335     0.72968    -1.88670
O     -2.33786     1.26130    -0.07974
H     -2.37170     0.72256     0.72727
O     -1.59926     0.99195    -3.43736
H     -1.76340     0.44912    -4.21213
O     -0.48240     0.31111    -2.86886
H     -0.05001     1.05140    -2.38869
O     -1.39279    -2.65828     0.26988
H     -0.50605    -2.48667    -0.11611
O     -2.23284    -2.66125    -0.88123
H     -2.39046    -1.71069    -0.99920
O     -0.09679     2.74255    -0.32016
H     -0.85199     2.12704    -0.27921
O      0.66511     2.20726    -1.40958
H      1.49627     1.97489    -0.96651
O      0.13506     0.20924     1.55285
H      0.90539     0.76836     1.77968
O      0.29926    -0.89891     2.44313
H     -0.61937    -0.96110     2.76188
O      0.61298    -1.80012    -1.25590
H      0.13591    -1.34941    -1.96902
O      1.26927    -0.67580    -0.66364
H      0.67590    -0.42163     0.09027
