 32
-1213.3107894523341
O      0.98912    -0.46798     2.13989
H      1.27515    -0.11432     3.00540
O      0.07272    -1.49243     2.51605
H     -0.25064    -1.74755     1.64233
O      1.37141    -0.42189    -1.14304
H      1.73875     0.04969    -0.37808
O      0.76050     0.68986    -1.82147
H      0.32073     0.20913    -2.56881
O     -1.47246    -3.68491    -1.82098
H     -1.33483    -2.84939    -1.33661
O     -1.34795    -3.24682    -3.17849
H     -2.22098    -3.44359    -3.53239
O      2.00682     1.75255     0.43063
H      2.06007     2.04552     1.34965
O      1.08202     2.71083    -0.11142
H      0.81511     2.19879    -0.89586
O     -1.81014    -0.11475    -3.42270
H     -1.88453    -0.13172    -2.45432
O     -0.53744    -0.73889    -3.58110
H     -0.75985    -1.68003    -3.42354
O      1.58055     2.10568     3.23858
H      0.63821     2.27075     3.05260
O      1.47260     1.08786     4.22606
H      2.16878     1.34176     4.83641
O     -1.62434    -0.34712    -0.72228
H     -1.44056     0.26912     0.01305
O     -0.85749    -1.49310    -0.34949
H      0.03395    -1.20485    -0.66014
O     -0.71847     2.36084     1.83707
H     -0.21604     2.60454     1.03257
O     -1.11136     1.01840     1.52258
H     -0.33242     0.50054     1.79849
