 24
-909.9777948522149
O     -1.77306    -1.99550     1.50536
H     -1.49119    -2.31345     0.63350
O     -1.00110    -0.79985     1.62121
H     -1.53839    -0.16497     1.10761
O     -0.98076    -2.42304    -1.10558
H     -0.22393    -1.79346    -1.13847
O     -1.97902    -1.69993    -1.82170
H     -1.99494    -2.15367    -2.67000
O      2.34604     1.42916     2.19592
H      3.08823     1.67662     2.75704
O      3.04299     0.81061     1.10650
H      2.51424    -0.00303     0.98922
O      0.81851     2.28014    -1.45358
H     -0.03709     1.95452    -1.76354
O      0.69304     1.88648    -0.07875
H      1.57906     2.03479     0.29169
O      1.31741    -1.17686     0.42688
H      0.46987    -1.03652     0.92474
O      0.98797    -0.67764    -0.88586
H      0.94713     0.28381    -0.72902
O     -1.61983     0.88068    -1.33394
H     -1.82129    -0.06884    -1.42410
O     -2.01505     1.13723     0.01923
H     -1.32480     1.76874     0.25671
