 12
-454.9734448048237
O      0.43214     0.31600    -2.03010
H      0.69015    -0.35676    -1.38194
O     -0.15870     1.30450    -1.17951
H      0.59171     1.61314    -0.65463
O      1.07801    -0.95126     0.51461
H      0.21748    -0.74786     0.93509
O      1.88221     0.11805     1.02345
H      2.54279    -0.36609     1.52924
O     -1.85615    -0.42021     0.03049
H     -1.34890     0.29623    -0.39769
O     -1.36902    -0.28468     1.37285
H     -2.03121    -0.78136     1.86248
