 16
-606.6348371861218
O     -1.73161    -0.55493     1.22501
H     -1.56294    -1.45163     1.52630
O     -0.96698     0.20799     2.17177
H     -0.45821     0.78134     1.56966
O      0.49030     1.90021     0.59070
H      1.15845     1.39052     0.09636
O     -0.34752     2.34307    -0.47909
H     -0.37475     3.28537    -0.29030
O      1.90838     0.04688    -0.81996
H      1.08967    -0.38231    -1.12513
O      2.32480    -0.83224     0.22850
H      3.15062    -1.16531    -0.13353
O     -0.78652    -0.61709    -1.25469
H     -1.17135    -0.46716    -0.36171
O     -0.97015    -2.02913    -1.40526
H     -1.70826    -2.04334    -2.02071
