 32
-1213.3023532830262
O     -2.31036    -0.62655     0.15347
H     -2.87428     0.17067     0.09325
O     -1.65935    -0.60659    -1.11964
H     -1.75634    -1.52890    -1.39157
O      1.28943     0.33953    -1.05673
H      2.15553     0.77289    -0.93962
O      1.00957     0.48512    -2.45424
H      0.69290    -0.41354    -2.63899
O      0.72577    -2.03997    -0.04707
H      0.93148    -1.12438    -0.34169
O      1.73717    -2.26099     0.93035
H      1.21136    -2.16567     1.73323
O      0.53971     1.91236     1.32582
H      0.18077     1.04576     1.60415
O     -0.33277     2.26946     0.24216
H     -0.03191     1.67981    -0.47364
O      3.54920     1.30379     0.29252
H      4.42698     1.55020    -0.00828
O      2.85289     2.54442     0.09476
H      2.09540     2.40342     0.69073
O     -0.39387    -3.04995    -2.22314
H      0.04750    -2.84298    -1.37211
O      0.26818    -2.13707    -3.09442
H      0.98635    -2.66933    -3.45218
O     -0.59904    -0.41022     2.16600
H     -1.25610    -0.62006     1.46178
O     -0.65867    -1.57690     2.97378
H     -0.85638    -1.18792     3.82851
O     -2.70220     1.96238     1.42069
H     -1.86876     2.17005     0.94911
O     -3.56334     1.73171     0.30216
H     -4.35617     2.20406     0.56758
