 16
-606.6359829557971
O     -1.82418    -0.48597     1.30200
H     -2.70784    -0.73806     1.58676
O     -1.92629     0.94301     1.25318
H     -1.03983     1.17728     1.56026
O      0.93694     1.33873     1.28789
H      0.97497     1.43493     0.31082
O      1.41739    -0.00965     1.39229
H      2.27233     0.14148     1.80828
O      1.01744     0.95787    -1.34202
H      0.36447     0.23137    -1.39314
O      2.24342     0.22908    -1.22596
H      2.03943    -0.32480    -0.46459
O     -0.42236    -1.25163    -0.86434
H     -0.94609    -1.02293    -0.06999
O     -1.45326    -1.47120    -1.82798
H     -1.17822    -2.32288    -2.17760
