 36
-1364.9765906839027
O     -0.56756     1.99167     2.89466
H     -0.85126     1.06646     2.77783
O     -1.57453     2.67993     2.13895
H     -1.04026     2.92154     1.35700
O     -1.27726    -0.57969     2.89401
H     -1.69261    -0.90276     3.70123
O     -0.14006    -1.43649     2.77054
H      0.43460    -0.88295     2.20614
O      1.49294     2.55732     1.32988
H      0.96006     2.34021     2.12208
O      0.42826     2.87482     0.42230
H      0.57094     2.22339    -0.29199
O     -1.02415    -1.98954    -4.16725
H     -0.34201    -2.17129    -4.81865
O     -0.22479    -1.78250    -3.00622
H     -0.37919    -0.82590    -2.81225
O      0.75165     1.24842    -1.68110
H      1.38143     0.54567    -1.92437
O     -0.50809     0.67465    -2.05708
H     -1.01237     0.73490    -1.21271
O     -3.03108     0.78277     0.77229
H     -2.79641     1.48348     1.39788
O     -1.72791     0.51976     0.26431
H     -1.71133    -0.45471     0.22989
O      1.31246    -0.39926     0.84142
H      1.29490    -1.12389     0.19274
O      2.58956     0.20831     0.62976
H      2.35256     1.13742     0.82925
O      2.68555    -0.69425    -2.06468
H      3.19946    -0.37630    -1.30979
O      2.26887    -1.96157    -1.54577
H      1.54096    -2.17009    -2.14974
O     -0.22975    -2.67656     0.10876
H     -0.40981    -2.66218     1.05886
O     -1.41630    -2.04813    -0.37974
H     -1.38969    -2.29784    -1.31301
