 36
-1364.9759566482298
O      0.03959     2.57578    -0.82526
H      0.73058     2.64163    -0.12180
O     -0.82564     1.58801    -0.26358
H     -1.11011     1.96826     0.59448
O     -2.27068    -1.92821     0.35475
H     -2.42094    -1.31878    -0.40707
O     -1.52588    -1.08555     1.22389
H     -0.65695    -1.04121     0.77943
O      1.17894    -0.24748     2.61673
H      1.91271    -0.11836     1.99587
O      1.06153     1.08300     3.15020
H      0.13666     1.08195     3.43582
O      1.89583     2.50982     1.07688
H      1.52209     2.22950     1.93618
O      2.72583     1.35915     0.84545
H      2.67290     1.26572    -0.12560
O     -1.69503     1.11608     2.94734
H     -1.75566     0.36564     2.32619
O     -1.89659     2.22705     2.08249
H     -2.78828     2.51448     2.30543
O     -2.15877    -0.22601    -1.65873
H     -1.66173     0.51777    -1.25519
O     -1.20883    -0.72892    -2.60323
H     -1.22893    -1.68924    -2.42690
O      2.73371     0.77501    -1.78448
H      2.77102    -0.19263    -1.74599
O      1.52209     0.95328    -2.53054
H      1.03085     1.60661    -1.99983
O     -0.55237    -3.62210    -0.86421
H     -1.14087    -3.06954    -0.30404
O     -1.10775    -3.39072    -2.16264
H     -1.84020    -4.01298    -2.20595
O      0.87399    -0.95742    -0.58268
H      0.50484    -0.53521    -1.38536
O      1.80749    -1.91073    -1.10185
H      1.26916    -2.71807    -1.06999
