 36
-1364.97338419723
O      2.14955     0.29264     3.22468
H      2.20749     0.79278     2.39480
O      1.40783    -0.85871     2.81268
H      0.52597    -0.48522     2.65266
O     -0.77114     1.10432     3.11820
H     -0.55582     1.14163     4.05562
O     -2.17625     0.79476     3.12900
H     -2.20708     0.24089     2.32649
O      3.39197    -0.51326     0.13038
H      3.14548    -0.24898    -0.76906
O      2.39483    -1.50742     0.38991
H      2.21749    -1.36256     1.34363
O     -0.62473     1.05038    -2.47577
H     -1.06328     0.18668    -2.53768
O     -1.39783     1.71405    -1.47755
H     -0.71833     2.00023    -0.83159
O     -2.32579    -1.27639    -3.01333
H     -3.03179    -1.39755    -3.65830
O     -2.77754    -2.08595    -1.92724
H     -2.97239    -1.39698    -1.25274
O     -1.82776    -0.51746     0.78124
H     -1.16235    -0.95112     0.18027
O     -2.84903    -0.09036    -0.13563
H     -2.40338     0.66467    -0.57369
O      1.91236     1.62359    -1.92445
H      1.04616     1.38751    -2.31656
O      2.72630     0.54344    -2.35901
H      3.41250     1.01523    -2.83897
O      1.38961     1.68414     0.72841
H      1.68854     1.62835    -0.20074
O      0.15467     2.39064     0.56969
H     -0.31650     2.08021     1.35817
O     -0.43802    -2.92464    -0.57328
H     -1.18465    -2.91776    -1.18729
O     -0.01671    -1.57279    -0.76836
H      0.90712    -1.57714    -0.40966
