 32
-1213.30704649938
O      2.97111     1.66249     1.76597
H      3.78488     2.15681     1.88765
O      2.05496     2.73919     1.53049
H      1.21359     2.32125     1.80915
O     -1.88266    -1.77144     0.01527
H     -1.06361    -2.04912     0.45602
O     -1.43512    -1.43427    -1.29846
H     -1.35210    -0.45143    -1.29001
O     -0.87386     1.18159    -1.45030
H      0.05657     1.21567    -1.13776
O     -1.54782     2.00531    -0.48361
H     -2.43824     1.59733    -0.48190
O     -0.32096     1.56448     1.86411
H     -0.84299     1.75114     1.05391
O     -0.25973     0.13600     1.85517
H      0.63852    -0.04149     1.53010
O      1.60129     0.86916    -0.58696
H      2.23551     1.44274    -0.11893
O      2.08063     0.87480    -1.93715
H      1.84546    -0.02821    -2.19256
O      0.99683    -2.38330    -1.66263
H      0.03651    -2.16044    -1.65507
O      1.42900    -1.65368    -2.80608
H      2.00365    -2.29837    -3.22511
O      0.58098    -2.77629     1.37554
H      0.55809    -2.59452     2.31999
O      1.61809    -1.87870     0.95504
H      1.56164    -2.00325    -0.00851
O     -3.29214     0.28821     1.04092
H     -2.80215    -0.48542     0.71013
O     -3.86821     0.74098    -0.18404
H     -4.71345     1.07925     0.12073
