 36
-1364.9762520391032
O      1.59761    -0.76803    -0.01878
H      1.14342    -0.90077     0.84569
O      1.50764    -2.05386    -0.63152
H      1.19097    -1.80284    -1.52961
O      0.15967    -3.00051    -3.31253
H     -0.32839    -3.32197    -2.54058
O      0.38060    -1.63647    -2.96731
H     -0.47130    -1.19374    -3.15356
O      2.80025     2.95665    -0.19106
H      1.85872     2.94411    -0.43440
O      2.79724     1.90471     0.77666
H      2.92110     1.10644     0.24425
O     -0.75506    -3.60114    -0.49149
H      0.19114    -3.44599    -0.34326
O     -1.29444    -2.46555     0.17474
H     -1.58917    -1.87974    -0.55327
O     -1.82072     0.08752    -2.62099
H     -1.09921     0.61558    -2.21534
O     -2.29939    -0.61313    -1.47300
H     -2.61638     0.10770    -0.90060
O     -1.84489     1.54026     1.14772
H     -1.64776     0.72218     1.66135
O     -3.01037     1.15773     0.43611
H     -3.63239     1.84346     0.68890
O      0.81339     1.96168     2.51371
H      1.55931     2.03039     1.86100
O      1.46192     2.41564     3.70110
H      1.05257     3.27752     3.79782
O      0.18195     1.05286    -1.25192
H      0.71199     0.38559    -0.74966
O      0.23248     2.20009    -0.40788
H     -0.49941     2.01066     0.21179
O     -1.05565    -0.75238     2.20952
H     -1.13982    -1.51943     1.60309
O      0.36314    -0.65388     2.35774
H      0.47632     0.28895     2.61898
