 32
-1213.31148372011
O      0.77211    -1.32083    -0.38722
H      1.71831    -1.15634    -0.12845
O      0.22029    -1.75379     0.86685
H     -0.73293    -1.76822     0.63349
O     -0.72664    -2.33668    -2.34574
H     -0.10456    -2.04696    -1.64556
O     -0.96844    -1.08763    -2.99182
H     -0.53096    -1.18850    -3.84405
O     -2.82440    -2.64384    -0.45384
H     -2.50130    -2.53909    -1.35878
O     -2.29776    -1.44025     0.10734
H     -3.03823    -1.10277     0.62480
O     -1.47586     1.99640    -2.03587
H     -1.69817     2.58209    -1.29230
O     -1.05377     0.87311    -1.25946
H     -1.08942     0.13603    -1.91017
O      1.33483     1.69080    -0.36368
H      0.44965     1.40908    -0.68134
O      1.01321     2.40118     0.84316
H      0.99582     1.67675     1.49638
O      3.11276    -0.79776     0.64998
H      2.94316    -0.53817     1.57505
O      3.65128     0.41096     0.10797
H      2.83559     0.90476    -0.11157
O      2.08281    -0.10283     3.01845
H      1.87216    -0.57513     3.82872
O      0.79227     0.23967     2.51855
H      0.58626    -0.52383     1.92434
O     -1.79156     1.46091     1.18845
H     -1.61778     0.95442     0.37623
O     -1.63348     2.79038     0.66356
H     -0.66690     2.89490     0.76545
