 36
-1364.9698175674168
O      0.65243     2.82286    -1.16240
H      0.08094     2.06081    -1.40835
O     -0.16663     3.52643    -0.22864
H     -0.77557     4.02271    -0.78836
O     -2.59428    -0.44293     0.45999
H     -2.76365    -0.24449     1.38975
O     -3.50703    -1.49330     0.13541
H     -2.87463    -2.13633    -0.21973
O      0.08125     0.12159     3.75711
H      0.66965    -0.12358     3.01002
O      0.94212     0.94016     4.54868
H      0.94382     0.44997     5.37494
O      0.29327    -0.95586     0.76051
H     -0.29347    -0.17047     0.86831
O      1.42898    -0.47893     1.49196
H      1.92155     0.02043     0.80966
O     -0.70625     1.38560     1.22711
H     -0.53824     2.26125     0.80985
O     -1.66930     1.66189     2.25382
H     -1.15248     1.34291     3.01192
O     -2.05034     1.05885    -1.65112
H     -2.37419     0.63065    -0.83444
O     -0.70769     0.54697    -1.68042
H     -0.85228    -0.40338    -1.91681
O      2.73495     0.94682    -0.45453
H      2.35688     1.84151    -0.50871
O      2.32349     0.39221    -1.70400
H      1.39100     0.17658    -1.53348
O     -0.97459    -2.69768    -0.85353
H     -0.48412    -2.11405    -0.24075
O     -0.68534    -2.09155    -2.11766
H      0.22092    -2.42528    -2.28110
O      1.85826    -2.87664    -2.00059
H      2.26273    -3.74857    -1.93807
O      2.70596    -2.18884    -2.92381
H      2.91756    -1.40623    -2.39436
