 36
-1364.974076811287
O     -1.75786     1.51540    -1.19716
H     -2.47663     0.89167    -0.95359
O     -0.71803     0.59947    -1.56859
H      0.01415     1.22396    -1.78375
O     -3.68162    -1.59200    -0.80297
H     -2.78125    -1.94205    -0.75178
O     -3.51302    -0.28958    -0.25186
H     -3.47828    -0.46860     0.70690
O     -0.84119    -1.39868     0.10415
H     -0.74914    -0.64451    -0.53613
O      0.14074    -2.32414    -0.36066
H      0.73745    -2.32854     0.41274
O      2.02353    -0.84286    -1.62896
H      1.25187    -1.42055    -1.46500
O      3.12421    -1.75548    -1.57007
H      3.21155    -1.84631    -0.60799
O     -1.72281     2.40721     1.91940
H     -1.59856     1.46560     2.12951
O     -0.65646     2.59655     0.98298
H     -1.10090     2.40616     0.12971
O     -1.57601    -0.24210     2.33840
H     -1.26649    -0.72311     1.54060
O     -2.94354    -0.64268     2.35416
H     -3.28131    -0.14279     3.10293
O      1.35108     2.12906    -2.19896
H      1.93206     2.77351    -1.77490
O      2.13044     1.60981    -3.27387
H      2.18665     0.68262    -3.00281
O      1.86122    -1.76503     1.65154
H      1.72113    -0.79517     1.72233
O      3.21291    -1.79992     1.20236
H      3.58565    -2.45439     1.79995
O      1.30614     0.84367     1.44422
H      0.63130     1.56564     1.35976
O      2.36613     1.29973     0.60092
H      2.35235     0.61924    -0.09125
