 40
-1516.6373864770646
O      1.07840     0.12698    -2.74273
H      0.11332     0.27278    -2.62210
O      1.61300     0.84092    -1.61957
H      1.40331     1.77176    -1.84862
O     -1.71697    -1.84144    -0.81945
H     -0.95067    -2.31710    -1.20705
O     -1.96345    -2.54072     0.39833
H     -1.05804    -2.68123     0.73421
O      1.76628     1.33295     3.91477
H      2.34517     1.84969     4.48407
O      1.72914     2.15837     2.74745
H      0.77660     2.32688     2.66489
O      1.35706     3.66853    -0.75586
H      0.77310     3.16644    -0.15391
O      0.74321     3.31718    -2.00180
H      1.01171     4.04511    -2.57115
O     -2.85560     0.68299     0.98565
H     -3.78400     0.89488     0.84382
O     -2.90232    -0.41139     1.90076
H     -2.67694    -1.15503     1.30922
O     -0.90811     2.33337     1.71426
H     -1.69121     1.74694     1.63911
O     -0.26011     1.97102     0.49004
H      0.09036     1.07150     0.70353
O     -2.21449     1.61132    -1.91107
H     -1.65213     1.94151    -1.19332
O     -1.52626     0.43040    -2.28833
H     -1.85719    -0.25452    -1.67421
O      1.76166    -2.42180    -2.15188
H      1.50023    -1.52601    -2.44556
O      0.50270    -3.00467    -1.79309
H      0.80483    -3.62904    -1.10911
O      0.56882    -3.10138     1.12324
H      1.18105    -2.37563     0.87855
O      1.17942    -4.22329     0.49541
H      0.77117    -4.94211     0.98498
O      0.92048    -0.21696     1.34953
H      1.51910     0.20663     1.99518
O      1.84422    -0.86018     0.46105
H      1.78928    -0.27796    -0.33356
