 24
-909.9770330759752
O     -2.15355    -1.08560     0.64932
H     -2.11389    -0.44769    -0.08345
O     -0.82183    -1.59793     0.55838
H     -0.35407    -1.04030     1.21495
O     -0.88258    -2.48507    -1.94026
H     -0.78147    -2.21789    -0.99758
O      0.03136    -1.57494    -2.55447
H      0.16173    -1.98344    -3.41585
O      2.06010    -1.30736    -0.69726
H      1.40938    -1.47091    -1.39584
O      1.90494     0.10718    -0.54664
H      1.95386     0.20817     0.42226
O     -0.36867     1.35343    -1.16711
H      0.42268     0.78759    -1.01784
O     -1.43162     0.43544    -1.45083
H     -1.01922    -0.19689    -2.06081
O      0.28048     0.06653     2.35656
H     -0.12274     0.94251     2.18046
O      1.66083     0.35387     2.12630
H      2.07215    -0.14378     2.83976
O      0.39417     3.31037     1.26454
H     -0.07926     4.13709     1.39836
O     -0.68354     2.37569     1.28603
H     -0.70268     2.07854     0.34722
