 36
-1364.9816282779468
O      2.94509     2.41461     2.64589
H      2.28178     2.68635     1.99279
O      2.06677     2.14782     3.74419
H      2.50550     2.62326     4.45658
O     -0.95631    -2.91501    -1.01489
H     -1.50185    -3.14096    -1.78336
O     -1.82769    -1.93923    -0.42094
H     -1.31287    -1.66914     0.35876
O      2.89923    -1.29418     1.81108
H      2.53774    -1.19842     0.91629
O      2.04727    -0.40264     2.53374
H      2.62427     0.34379     2.76977
O      0.10436     1.35942    -1.20247
H     -0.33665     1.22646    -2.07130
O     -1.02384     1.32649    -0.32410
H     -0.84675     0.52201     0.21245
O     -0.61453    -0.60649    -3.91801
H      0.07757    -0.79721    -3.25531
O     -1.19567     0.59309    -3.39804
H     -2.07750     0.25721    -3.14234
O     -0.37502     2.48347     2.65050
H      0.37610     2.34457     3.24985
O      0.37283     2.78004     1.45617
H     -0.20121     2.40670     0.75639
O     -3.08755    -1.10961    -2.62267
H     -2.83398    -1.25317    -1.69420
O     -2.51569    -2.30095    -3.19432
H     -1.80802    -1.88208    -3.71571
O      1.08509    -1.42335    -2.00063
H      0.47148    -2.04836    -1.56887
O      1.67085    -0.76706    -0.87284
H      1.20009     0.09239    -0.89390
O     -1.28525    -0.06060     2.42012
H     -1.03643     0.88569     2.46071
O     -0.36715    -0.55954     1.44443
H      0.49832    -0.49613     1.91890
