 32
-1213.3194795593054
O      1.72557    -1.75225    -0.23192
H      2.35413    -1.69311     0.51327
O      2.22866    -0.71825    -1.07679
H      1.44082    -0.14513    -1.17576
O     -1.29665    -2.43315    -0.01166
H     -2.14681    -2.08141    -0.33478
O     -0.59351    -2.53179    -1.26037
H      0.30271    -2.28140    -0.95981
O     -1.68202    -0.07848     2.19448
H     -2.16072     0.66505     1.79907
O     -0.60105    -0.15584     1.26032
H     -0.74180    -1.03906     0.84867
O     -2.44735     1.98735     0.55714
H     -1.61418     1.96299     0.03696
O     -3.37863     1.50761    -0.39714
H     -3.80433     2.30956    -0.71520
O      3.91013     0.38454     0.58916
H      3.50056     0.05133    -0.23064
O      3.49805    -0.67138     1.47643
H      2.86920    -0.16772     2.02603
O      0.19908     0.86702    -1.59777
H     -0.67188     0.48856    -1.84138
O     -0.12504     1.92934    -0.70731
H      0.63548     1.92633    -0.08249
O      1.59426     1.00479     2.14714
H      0.75510     0.59233     1.83662
O      1.83000     1.98493     1.12384
H      2.75091     1.75765     0.89846
O     -1.93482    -0.59863    -2.42224
H     -1.41597    -1.42361    -2.36741
O     -2.89635    -0.88807    -1.40626
H     -3.03672    -0.00637    -1.01621
