 16
-606.6366366155962
O     -2.67272    -0.24327     1.46867
H     -2.78332    -0.54144     2.37625
O     -1.27447    -0.48301     1.27350
H     -0.91294     0.41846     1.21932
O      0.42582     1.75096     0.54921
H      0.83926     1.28894    -0.21303
O      1.40265     1.49658     1.57225
H      1.85844     2.34338     1.61206
O      1.62962     0.11179    -1.24692
H      0.91447    -0.53273    -1.42861
O      2.51712    -0.66277    -0.42713
H      2.32391    -0.30203     0.44942
O     -0.57706    -1.44322    -1.25485
H     -0.97784    -1.20488    -0.40029
O     -1.30851    -0.61117    -2.15880
H     -1.70210    -1.27592    -2.73193
