 32
-1213.3147602141994
O     -1.23876    -3.04032    -2.66344
H     -0.92152    -3.94932    -2.68458
O     -0.02099    -2.30230    -2.59096
H      0.04246    -2.12017    -1.62572
O      2.80810    -0.52063     3.40490
H      2.53945    -1.19075     4.04005
O      2.23189     0.67300     3.94079
H      1.38440     0.69524     3.45328
O      0.51572     0.59473    -3.13812
H      0.23254    -0.32302    -3.25807
O      0.60774     0.63903    -1.72417
H     -0.11776     1.25527    -1.48534
O     -0.00891     0.57755     2.45066
H     -0.33454     0.04491     1.68849
O      0.23080     1.84564     1.85538
H      1.03212     1.63425     1.33205
O      2.16220     0.75893     0.41418
H      1.72854     0.65469    -0.45850
O      2.35443    -0.60537     0.79551
H      2.57303    -0.51133     1.75043
O     -2.25202    -0.37119    -1.82736
H     -2.56575    -1.04641    -2.44657
O     -3.40006    -0.12080    -1.01437
H     -3.16747     0.76179    -0.69999
O     -1.11285     2.49468    -0.90647
H     -0.97915     3.44329    -0.82698
O     -1.89104     2.16177     0.24206
H     -1.19148     2.05159     0.92784
O     -0.89680    -0.84228     0.40600
H     -1.37594    -0.69761    -0.44016
O      0.11330    -1.78787     0.03144
H      0.93810    -1.34930     0.34314
