 40
-1516.641080075709
O      1.48537    -1.33215    -1.21936
H      0.89257    -0.58568    -1.47127
O      1.95733    -0.82718     0.03295
H      1.09841    -0.70230     0.49760
O     -2.98548     0.98070     0.90488
H     -2.79014     1.92703     1.06574
O     -2.43721     0.81245    -0.40112
H     -2.61906    -0.13952    -0.57544
O      0.47191     2.63328     1.05977
H      1.25529     2.30507     0.57767
O      0.60507     2.00766     2.33460
H      0.01393     1.23506     2.25206
O     -0.49366    -0.83354     0.83480
H     -0.62590    -1.80390     0.95536
O     -0.94764    -0.25013     2.06884
H     -1.79082     0.12403     1.72823
O     -2.21688     4.28786     0.26618
H     -2.64866     5.04519     0.67157
O     -2.01661     3.45511     1.41126
H     -1.04628     3.28150     1.35822
O      0.02576     0.79500    -1.45553
H     -0.81065     1.04501    -0.99125
O      0.08151     1.66423    -2.57900
H      0.91078     2.11843    -2.38196
O     -2.24202    -1.46703    -2.64523
H     -1.69756    -0.66859    -2.65551
O     -2.41732    -1.68606    -1.24711
H     -1.78802    -2.41949    -1.06551
O     -0.30834    -3.30487    -0.70483
H      0.43585    -2.70340    -0.92298
O     -0.19800    -3.44093     0.72122
H      0.69312    -3.83633     0.81513
O      2.63022    -3.04261     1.58166
H      2.61996    -2.30123     0.95539
O      2.37863    -4.12453     0.68067
H      2.92321    -4.82095     1.05555
O      2.64322     1.74851    -0.42321
H      2.61229     0.76855    -0.42970
O      3.17203     2.06451    -1.70874
H      3.91518     2.61866    -1.45967
