 32
-1213.309282069547
O      3.18773    -1.33582     2.26815
H      2.75647    -2.15347     1.99750
O      2.07106    -0.45077     2.37901
H      2.27053     0.21990     1.70812
O      0.24660    -1.91533    -2.08877
H     -0.54780    -1.73431    -1.56160
O      1.29100    -1.86736    -1.12303
H      1.31241    -0.93179    -0.85810
O     -2.23331     0.02285     2.30640
H     -1.61519    -0.65160     1.95385
O     -3.20784     0.11679     1.25395
H     -3.32465     1.07872     1.22695
O     -0.80078     2.12985     1.51688
H     -1.20191     1.42119     2.05875
O     -1.96707     2.54575     0.78636
H     -1.78358     2.14848    -0.08665
O      1.95068     2.00008    -0.50929
H      1.88469     1.77473    -1.44587
O      1.13990     0.94281     0.01401
H      0.42149     1.41721     0.48727
O     -1.64694     1.12927    -1.44430
H     -0.87808     1.03297    -2.03409
O     -1.89760    -0.24495    -1.11042
H     -2.36923    -0.16384    -0.25745
O      0.06263    -2.77647     1.07924
H      0.54804    -2.66180     0.23964
O     -0.20963    -1.40196     1.36246
H      0.57826    -1.14892     1.89119
O      1.70146     0.92172    -3.02661
H      1.87842     1.35422    -3.86607
O      0.34869     0.52007    -3.21149
H      0.42407    -0.44425    -3.07127
