 40
-1516.6389226713031
O      0.91619     0.85217     3.08794
H      0.68039    -0.08516     3.17802
O      2.32657     0.85373     2.87566
H      2.42024     0.37911     2.03208
O      1.54549     0.95460    -1.36230
H      0.79996     0.37454    -1.63711
O      0.80311     2.10074    -0.92641
H      1.37897     2.47566    -0.23047
O      2.00462     3.15867     1.20208
H      2.26170     2.67162     2.00332
O      0.69209     3.58915     1.55396
H      0.68232     4.48825     1.21237
O     -1.47608    -0.74549     2.36976
H     -1.48667     0.18186     2.06675
O     -1.17050    -1.42813     1.15245
H     -1.96531    -1.27715     0.60714
O     -1.43849     1.76817     1.38777
H     -0.70829     2.40135     1.49057
O     -1.68068     1.80342    -0.02104
H     -0.77997     1.75119    -0.41207
O     -0.39182    -1.92056    -1.94354
H      0.44987    -1.93719    -1.43856
O     -0.59497    -0.49642    -2.01739
H     -1.56988    -0.42884    -2.07872
O     -3.28991    -4.02980    -2.84222
H     -3.54046    -4.83773    -2.38455
O     -2.95954    -3.18276    -1.73887
H     -2.01173    -3.02775    -1.88161
O     -3.28392    -0.37973    -1.91777
H     -3.59256    -1.29059    -2.02860
O     -3.17634    -0.33868    -0.49273
H     -2.78994     0.55136    -0.35703
O      1.81568    -1.82483    -0.44172
H      2.74765    -1.55414    -0.46908
O      1.42619    -1.02706     0.68653
H      0.46321    -1.19363     0.75876
O      3.67144     0.76443     0.21811
H      2.93512     0.81633    -0.43090
O      4.16795    -0.54435    -0.06355
H      5.04092    -0.35581    -0.42066
