 40
-1516.6410829789038
O      1.94338     0.65820     3.65556
H      1.93567     1.24244     4.42125
O      2.18801     1.56166     2.58637
H      1.30217     1.63167     2.18605
O      1.58972    -0.69495    -2.28336
H      1.75990    -1.60653    -2.00667
O      0.33229    -0.54956    -1.61279
H     -0.05454     0.26036    -2.01836
O     -2.29040     1.45053    -2.19134
H     -2.41052     0.48317    -2.25204
O     -0.90587     1.59330    -2.52474
H     -0.56542     2.20162    -1.83210
O     -0.15693    -0.73062     2.76008
H      0.58747    -0.39587     3.29142
O      0.23122    -0.16322     1.50679
H      0.92275    -0.79512     1.18152
O     -2.30267     1.76669     0.46053
H     -2.51770     1.75932    -0.49515
O     -2.26804     0.35607     0.73235
H     -1.32968     0.21556     0.99591
O      0.19175     2.65585     0.69250
H     -0.75747     2.39588     0.62623
O      0.54920     2.82379    -0.68525
H      1.44532     2.43859    -0.68797
O      2.95569     1.70402    -0.24934
H      3.00039     1.67250     0.71942
O      3.40350     0.39471    -0.59977
H      2.80950     0.18645    -1.34578
O     -0.95339    -2.74300    -0.17720
H     -1.10417    -1.90389    -0.64804
O     -1.91948    -2.71863     0.86512
H     -1.45696    -2.26226     1.58865
O      2.17446    -1.88901     0.74540
H      2.81535    -1.28599     0.33266
O      1.75375    -2.67514    -0.37597
H      0.80556    -2.80770    -0.18585
O     -2.61813    -1.25971    -2.00130
H     -2.60816    -2.01470    -2.60271
O     -3.82899    -1.42492    -1.27203
H     -3.49130    -1.75640    -0.42599
