 20
-758.3002971636904
O      0.78202    -1.48457     1.28148
H      0.78989    -0.87279     0.51114
O     -0.45814    -2.17644     1.10870
H     -0.16486    -3.01894     0.74625
O      1.71791     1.44797    -0.16442
H      1.73350     1.25441     0.78615
O      0.92281     0.35446    -0.64766
H      0.32670     0.82305    -1.25705
O      2.08721     0.98373     2.51359
H      2.51527     1.61008     3.10366
O      0.88375     0.68570     3.23168
H      0.77861    -0.23649     2.96049
O     -1.31355    -1.63380    -1.90183
H     -0.91245    -0.90394    -2.39160
O     -1.89193    -0.89696    -0.81624
H     -1.43222    -1.29984    -0.05844
O     -1.95800     1.74563    -1.97559
H     -2.24638     0.93182    -1.53153
O     -0.76621     1.24184    -2.59481
H     -0.85430     1.55833    -3.49963
