 36
-1364.9820511888909
O      0.44480     3.55576     0.72526
H      0.91315     4.38360     0.58658
O      1.37175     2.81792     1.52579
H      0.75097     2.21123     1.97954
O     -0.36198     1.01892     2.51365
H     -1.17541     0.75163     2.03438
O      0.49296    -0.11316     2.30983
H      0.01946    -0.80231     2.82084
O     -1.04362    -1.97066     3.48593
H     -0.88457    -2.77440     3.98999
O     -1.86387    -2.42856     2.41459
H     -1.18273    -2.54341     1.71357
O     -1.20878    -1.42795    -3.58669
H     -0.86912    -1.97025    -2.86086
O     -0.31800    -0.31640    -3.52111
H     -0.86901     0.39971    -3.16461
O     -0.47420     2.12820    -2.04799
H      0.47921     1.98664    -2.20888
O     -0.52516     1.58704    -0.73062
H     -0.19562     2.34111    -0.18950
O     -2.24602    -0.30894    -0.01986
H     -1.65452     0.43082    -0.29508
O     -2.59121     0.06783     1.31560
H     -2.70318    -0.80695     1.72137
O      2.12717    -0.05401    -2.45990
H      1.25251    -0.16006    -2.87800
O      2.07582     1.31887    -2.05099
H      2.21161     1.19932    -1.09170
O      2.23131     0.18465     0.32438
H      1.57604     0.13189     1.04964
O      2.29164    -1.18749    -0.07733
H      2.38000    -1.05990    -1.04329
O      0.01984    -2.46621     0.55612
H      0.90074    -2.05493     0.39166
O     -0.61167    -2.32932    -0.71432
H     -1.29414    -1.65907    -0.50243
