 36
-1364.9769450206531
O      0.47710     0.03147    -1.96416
H      0.17377     0.94643    -1.77499
O      1.77315     0.08146    -1.34050
H      1.99821    -0.86740    -1.28159
O     -2.79840     0.28514     0.59268
H     -2.33330    -0.52197     0.88932
O     -2.28354     0.42073    -0.73861
H     -1.90985     1.31906    -0.70764
O     -2.18273    -2.00988    -1.81656
H     -2.39042    -1.12537    -1.45370
O     -0.82947    -2.16830    -1.40373
H     -0.43096    -1.29071    -1.62827
O     -0.08556     2.46952    -1.12316
H      0.40344     2.60106    -0.29148
O     -0.09180     3.74110    -1.76037
H     -0.93969     4.07940    -1.44105
O      2.03223    -2.60746    -1.12270
H      1.22546    -2.86829    -1.58587
O      1.68613    -3.05222     0.19048
H      2.49641    -2.85890     0.68401
O      1.50121     1.27282     1.01941
H      1.62270     0.79796     0.16698
O      0.10959     1.08891     1.26158
H     -0.00149     0.10952     1.33089
O     -1.74589     3.43694     1.19796
H     -1.37469     2.56580     1.40850
O     -2.50587     3.13027     0.02980
H     -3.39502     2.96589     0.36673
O      3.61668    -0.65605     1.91491
H      2.92477     0.02233     1.99044
O      2.91636    -1.80638     2.39004
H      3.34379    -1.97823     3.23714
O     -1.39739    -2.03465     1.14381
H     -1.28587    -2.28141     0.19650
O     -0.09928    -1.53887     1.48814
H      0.51039    -2.15896     1.04183
