 40
-1516.6395597939172
O      2.89216    -1.39624    -1.26616
H      3.19552    -1.59578    -0.35489
O      3.29824    -0.02218    -1.35048
H      2.45829     0.41525    -1.60807
O      0.53017     0.79901     1.07045
H      1.49728     0.68045     1.21398
O      0.22100     1.88366     1.95995
H     -0.48256     1.45840     2.47808
O     -1.72948     0.37716     3.15047
H     -2.07850    -0.06091     2.34734
O     -1.13810    -0.71293     3.85013
H     -1.69715    -0.79225     4.62889
O     -3.49956    -0.19401    -2.46645
H     -4.09917     0.34339    -2.99484
O     -2.35286    -0.30246    -3.29316
H     -1.75861     0.38480    -2.94435
O      0.99301    -1.68072     2.47567
H      0.24747    -1.32433     2.99055
O      0.34364    -2.54311     1.55106
H      0.37408    -2.01745     0.73623
O     -0.02771    -1.92027    -2.62881
H     -0.98453    -1.79286    -2.66592
O      0.22775    -1.52456    -1.28197
H      1.21332    -1.52472    -1.27846
O     -1.00120     3.49734     0.21567
H     -0.45373     3.10405     0.91641
O     -1.10530     2.38072    -0.66962
H     -1.83313     1.85785    -0.27979
O     -2.06008    -0.52726     0.62692
H     -1.16462    -0.22663     0.38657
O     -2.87394     0.50638     0.08627
H     -3.16489     0.10812    -0.75395
O      3.29313    -1.15716     1.30251
H      2.46394    -1.37560     1.78960
O      3.20865     0.27499     1.25837
H      3.50058     0.41951     0.33653
O      0.26583     0.76395    -3.00696
H      0.54665    -0.16129    -3.04884
O      1.00234     1.22725    -1.86831
H      0.30146     1.70903    -1.36231
