 32
-1213.313784851028
O     -0.43155     0.09894     1.69701
H      0.53492     0.28645     1.63927
O     -0.55577    -1.23935     1.20539
H     -1.18759    -1.06774     0.47681
O      1.69711     1.29365    -1.85372
H      2.27599     1.12617    -1.08510
O      0.54460     0.54241    -1.47028
H      0.01770     1.21494    -1.00774
O     -0.64292    -3.44797    -0.85284
H      0.26001    -3.09345    -1.00599
O     -0.48075    -4.21838     0.33926
H     -0.64712    -3.54753     1.01192
O     -1.44822     1.93687     0.04439
H     -1.23706     1.38904     0.82708
O     -2.86611     1.98441     0.06767
H     -3.08424     1.10850    -0.28018
O      2.03278     1.08195     1.51295
H      1.83675     1.97392     1.16008
O      2.89642     0.58444     0.48626
H      2.67874    -0.37464     0.50873
O     -2.09883    -0.69434    -0.84387
H     -1.67270    -0.35966    -1.64871
O     -2.99474    -1.70813    -1.29835
H     -2.44029    -2.49284    -1.14177
O      1.52530    -1.89131    -1.01431
H      1.19739    -0.97979    -1.17894
O      1.86527    -1.86574     0.37706
H      0.97194    -1.83473     0.77662
O      0.25965     3.95092     1.24822
H     -0.55581     3.73105     0.77162
O      1.22085     3.35119     0.38270
H      1.69018     4.10352     0.00259
