 36
-1364.974951077134
O      2.50300    -0.12072     3.01420
H      2.94263     0.23576     2.22842
O      1.18234    -0.32188     2.50201
H      1.30879    -1.07133     1.88179
O     -1.21323     1.72298     0.31937
H     -1.37541     1.73582     1.28112
O     -2.38376     1.04542    -0.15098
H     -2.54242     1.50758    -0.98364
O      0.59798    -1.84535    -0.46076
H     -0.15549    -1.75809     0.18160
O      1.68773    -1.99901     0.45414
H      2.38037    -1.46341     0.02804
O      1.12261     1.15685    -0.82185
H      0.24999     1.27759    -0.37314
O      0.82933     0.30841    -1.92746
H      0.66121    -0.53256    -1.44437
O     -1.15376    -1.95717    -3.05268
H     -0.47113    -2.31394    -2.47378
O     -1.89256    -1.17922    -2.11343
H     -1.89631    -0.29480    -2.53361
O     -1.57202     1.08326     2.86305
H     -2.11780     1.17267     3.64893
O     -0.36093     1.74015     3.24388
H      0.26833     1.00788     3.06725
O     -1.95264     1.17344    -3.34259
H     -1.87234     1.22682    -4.30172
O     -0.94062     2.07043    -2.87775
H     -0.22744     1.44579    -2.61828
O      3.40981    -0.05727    -0.34841
H      2.69176     0.55275    -0.62132
O      3.92132     0.64521     0.78146
H      4.86197     0.46910     0.69588
O     -1.34757    -1.51673     1.26047
H     -1.59425    -0.72643     1.76834
O     -2.58108    -1.96035     0.70722
H     -2.44889    -1.73171    -0.22520
