 32
-1213.305647600526
O      2.08020    -0.24801     2.00427
H      2.14518    -0.30322     2.96193
O      2.29962     1.14370     1.77558
H      2.97832     1.08017     1.07904
O      1.00965    -1.81003    -1.53567
H      0.04638    -1.95230    -1.61057
O      1.06516    -0.46861    -1.05999
H      0.65630     0.06070    -1.78006
O     -0.42522     0.95960    -2.73543
H     -0.40385     1.89126    -2.98609
O     -1.67519     0.84567    -2.03963
H     -1.41997     1.06780    -1.11894
O     -0.75135     1.16036     0.50017
H     -0.15972     0.38768     0.42833
O      0.14492     2.26781     0.42539
H      0.89898     1.96270     0.96556
O      3.50826     0.39971    -0.57415
H      2.69578    -0.12199    -0.76455
O      3.37981     1.45708    -1.52850
H      4.08787     1.23835    -2.14158
O     -1.70662    -1.97424    -1.65362
H     -1.96674    -1.08713    -1.94467
O     -2.19593    -1.97363    -0.30633
H     -1.35690    -1.98570     0.19366
O     -0.62882    -1.44904     2.52384
H     -1.42306    -0.93140     2.31402
O     -0.06623    -1.58355     1.21619
H      0.84756    -1.27653     1.36483
O     -3.19400    -0.14604     1.75480
H     -3.15670    -0.55761     0.87601
O     -3.53257     1.20660     1.45544
H     -2.65982     1.62103     1.47353
