 28
-1061.6448523218544
O      2.37665    -2.03154    -1.64126
H      1.63867    -2.40910    -1.11684
O      1.68328    -1.10344    -2.47468
H      1.87758    -1.45534    -3.35080
O      1.11885     1.19305     3.28045
H      1.09542     1.77918     4.04220
O      0.28243     1.89484     2.36367
H     -0.47604     1.28146     2.28544
O      1.82791     0.05776     0.18300
H      2.34493    -0.21725    -0.58992
O      1.47894     1.40129    -0.16370
H     -2.03554    -0.71106    -0.60463
O     -0.92572     1.96775    -1.26230
H     -0.05888     1.64382    -0.96422
O     -1.31091     2.68567    -0.09096
H     -1.65338     3.50295    -0.46503
O     -2.34492     0.37577     0.70840
H     -2.02992     1.28046     0.50327
O     -1.64542     0.06622     1.91860
H     -1.24808    -0.79820     1.71256
O     -1.30295    -0.77721    -2.35801
H     -0.34238    -0.77293    -2.24712
O     -1.72379    -1.44362    -1.17268
H      1.33822     1.77938     0.71809
O      0.28125    -2.75348    -0.08887
H     -0.53300    -2.42512    -0.53764
O      0.26215    -1.92850     1.08100
H      0.81281    -1.17743     0.79132
