 20
-758.3065965449499
O      0.25708    -2.00549     1.89438
H      0.86355    -2.75202     1.91460
O     -0.07253    -1.92973     0.50583
H      0.60349    -1.29821     0.15637
O      1.40905     1.13629    -0.14705
H      1.22748     0.99141     0.80058
O      1.66870    -0.21299    -0.58468
H      1.30406    -0.13060    -1.49448
O      0.94295     0.53269     2.45410
H      0.63290    -0.39175     2.40289
O     -0.25976     1.20576     2.81399
H      0.04087     1.72532     3.56545
O     -2.21800    -0.08804    -0.29850
H     -1.74140    -0.77719     0.19102
O     -2.12104    -0.61594    -1.63002
H     -3.02399    -0.50633    -1.94294
O      0.19728     0.41484    -2.67613
H     -0.68852     0.16585    -2.35309
O      0.14232     1.84327    -2.65276
H      0.55994     2.02077    -1.79856
