 24
-909.9791811460587
O     -0.32578     0.44300     1.76731
H     -0.53500    -0.45869     1.43629
O     -1.59436     0.89269     2.24341
H     -2.03636     1.06590     1.39613
O      1.52264    -1.69014    -0.92583
H      1.85535    -1.08563    -0.23161
O      1.16306    -0.76089    -1.93997
H      1.88268    -0.86221    -2.57159
O      2.46063     0.04495     0.82753
H      2.60932     0.22483     1.76243
O      3.08309     1.14596     0.16354
H      2.29517     1.70290    -0.00336
O     -2.45440     1.09297    -0.34646
H     -1.60369     1.36141    -0.76606
O     -2.63430    -0.17674    -0.96387
H     -3.57419    -0.16309    -1.16081
O     -1.13053    -1.79824     0.59044
H     -1.74682    -1.38756    -0.04263
O     -0.70983    -2.97116    -0.10817
H      0.13670    -2.65588    -0.46342
O     -0.01518     1.50492    -1.20400
H      0.50789     0.68775    -1.33019
O      0.55136     2.12259    -0.05349
H      0.19354     1.55429     0.66785
