 24
-909.9767772640979
O     -1.78030    -1.32935     0.11244
H     -2.47671    -0.81081    -0.31622
O     -1.59834    -0.55914     1.30292
H     -0.82433    -0.99574     1.69396
O      0.36047    -0.87472    -1.49907
H     -0.38658    -1.13452    -0.92971
O     -0.12465     0.35362    -2.06805
H      0.30341     0.99113    -1.46547
O      3.28493    -0.83928    -0.63707
H      2.41345    -0.79895    -1.06062
O      3.17150     0.15957     0.37267
H      2.97204    -0.35204     1.17054
O     -3.92723     0.53928    -2.32586
H     -4.36246     1.39609    -2.35955
O     -2.86619     0.80941    -1.40243
H     -2.08113     0.74642    -1.97216
O      1.52444    -0.25122     2.70162
H      1.02413     0.44517     2.23649
O      0.71826    -1.39528     2.42557
H      0.73345    -1.84499     3.27602
O      1.08665     1.71932    -0.10303
H      1.90365     1.20995     0.09486
O      0.33442     1.53863     1.10370
H     -0.49430     1.14853     0.78264
