 36
-1364.9712582134755
O      3.18738     0.34937     1.09035
H      3.69406     0.17141     1.88902
O      2.10192    -0.56170     1.26294
H      2.35849    -1.30621     0.66015
O     -1.04823    -0.55426     2.23987
H     -1.81869    -0.22606     1.73983
O     -0.18786     0.59068     2.18515
H      0.64307     0.18613     1.86263
O      0.77822     3.30782    -0.63999
H      0.14446     2.83992    -1.20968
O      1.20192     2.18615     0.14972
H      2.16215     2.28492     0.19191
O     -0.11848     0.24963    -1.02201
H      0.53144     0.73413    -0.46683
O     -0.88813     1.34577    -1.53924
H     -1.45163     1.50032    -0.76246
O      1.19815    -1.43585    -2.57986
H      0.64733    -0.79208    -2.08261
O      0.29152    -2.54632    -2.73155
H      0.85164    -3.25745    -2.38541
O     -2.72441     0.10209     0.30762
H     -2.62498    -0.57523    -0.37570
O     -3.92404     0.78442    -0.05064
H     -3.72266     1.63534     0.36562
O     -1.54746     3.89938     1.41166
H     -0.78955     4.10953     0.85131
O     -1.74517     2.52507     1.09736
H     -1.10705     2.03632     1.65760
O      2.76011    -2.35393    -0.63997
H      2.46069    -1.91006    -1.46116
O      1.89209    -3.49636    -0.65730
H      1.13490    -3.14466    -0.14744
O     -0.24983    -2.44526     0.48064
H     -0.52098    -1.78219     1.15076
O     -1.30976    -2.34683    -0.48309
H     -0.80499    -2.40124    -1.31523
