 28
-1061.6464950523136
O     -2.88566     1.46814    -0.92100
H     -3.83481     1.31248    -0.96586
O     -2.60055     1.33627     0.47504
H     -2.56746     0.35037     0.55595
O     -0.00716     2.26617    -0.17130
H     -0.82878     2.34864     0.33571
O      0.96694     2.19160     0.87415
H      1.71064     1.75859     0.39784
O     -1.96980    -1.96378     1.34294
H     -1.32159    -1.30423     1.65710
O     -2.54872    -1.26472     0.24110
H      0.79152    -1.18948    -1.54734
O     -1.13679    -0.25484    -2.00620
H     -1.70752     0.49402    -1.74919
O      0.17504     0.31577    -1.99027
H      0.13650     1.02327    -1.30579
O     -0.11739    -0.07721     1.73943
H      0.30356     0.79761     1.56238
O      0.99932    -0.96504     1.72886
H      0.88196    -1.40892     0.87526
O      2.50137    -1.92688    -1.19491
H      2.67548    -2.42998    -1.99638
O      1.08521    -1.99624    -1.06441
H     -1.91879    -1.42918    -0.47805
O      2.70192     0.53328    -0.16537
H      2.73395    -0.37725    -0.52895
O      3.25640     0.36132     1.13519
H      2.51782    -0.09805     1.57417
