 36
-1364.9765315910283
O      0.10943     3.30469     0.37676
H     -0.61051     2.88513     0.86619
O      0.74059     2.16243    -0.17729
H      0.42561     2.13313    -1.10196
O     -1.63552     1.19500    -1.24721
H     -1.54447     0.95989    -0.30122
O     -1.39385    -0.07014    -1.86896
H     -0.92648     0.19218    -2.68110
O      1.85763     0.05214     2.89847
H      2.65791     0.34651     2.44504
O      1.15774    -0.49566     1.77602
H      0.99715    -1.41952     2.03644
O      1.34899     1.64713    -2.93983
H      2.22389     1.53674    -2.54402
O      1.01169     0.32079    -3.35920
H      1.34536    -0.22189    -2.61159
O     -3.51253    -1.06932    -0.06846
H     -3.27578    -1.09828    -1.00514
O     -3.68888    -2.44923     0.27676
H     -2.78959    -2.69969     0.57421
O     -1.20915     0.67298     1.32792
H     -0.33066     0.28127     1.52652
O     -2.09440    -0.24461     1.97525
H     -2.69983    -0.48622     1.23156
O      3.11196     1.19054     0.40396
H      2.24351     1.64357     0.31046
O      3.72543     1.54300    -0.83474
H      4.32046     2.25323    -0.56890
O      1.65848    -0.88250    -1.09091
H      1.99370    -0.55723    -0.23684
O      0.45166    -1.52108    -0.68225
H     -0.24101    -0.94651    -1.07909
O     -0.73947    -2.55390     2.22363
H     -1.32080    -1.77927     2.33693
O     -1.12608    -2.98685     0.91971
H     -0.50598    -2.49535     0.34833
