 36
-1364.9731806796062
O      0.00203     3.37390     0.83219
H     -0.57130     4.12024     1.04504
O      0.36936     3.66132    -0.52322
H     -0.11197     2.96490    -1.00525
O     -1.15542     1.40447    -1.57828
H     -1.05030     1.08255    -0.66100
O     -0.68033     0.24836    -2.27469
H      0.17094     0.57625    -2.65835
O      1.30986    -0.49629     2.65253
H      1.97000    -0.05979     2.09917
O      1.43199    -1.86123     2.22387
H      0.55293    -2.21642     2.47521
O      1.77451     1.03203    -2.90718
H      2.28215     1.48425    -2.20109
O      2.53298    -0.15672    -3.11236
H      2.05899    -0.79856    -2.56590
O     -3.05287    -0.67091    -0.43790
H     -3.22045    -0.81471    -1.37769
O     -3.79643    -1.70717     0.20912
H     -3.06531    -2.26412     0.54885
O     -0.55303     0.57447     0.82994
H     -0.20352     1.33494     1.32428
O     -1.66762     0.15303     1.62404
H     -2.29356    -0.05137     0.89604
O      2.45765     1.21869     0.40599
H      2.06730     0.47754    -0.08714
O      2.81852     2.10902    -0.65576
H      2.31390     2.90465    -0.42807
O      1.27774    -1.43530    -0.39239
H      1.33509    -1.67852     0.56491
O     -0.04467    -1.87919    -0.73137
H     -0.39862    -1.10980    -1.22590
O     -1.21126    -2.41142     2.38105
H     -1.49144    -1.48517     2.26990
O     -1.58850    -2.99137     1.13656
H     -0.91386    -2.64520     0.51705
