 36
-1364.9815387934011
O     -1.64609     0.53954    -2.55995
H     -2.37417     0.37223    -1.92975
O     -0.86661     1.45090    -1.77764
H     -0.05905     1.55107    -2.31828
O     -3.21275     0.00200    -0.44404
H     -2.76621     0.51030     0.26225
O     -3.04963    -1.34856    -0.01885
H     -2.42301    -1.69811    -0.68004
O      1.34556     1.62574     2.08700
H      0.48727     1.49710     2.54067
O      0.86533     1.69687     0.74581
H      1.21780     0.87086     0.36083
O      1.80699    -0.59500    -0.16736
H      2.54626    -0.94986     0.35362
O      2.23500    -0.83164    -1.51569
H      1.39518    -1.17250    -1.89908
O     -1.73920     1.51306     1.26393
H     -0.91834     1.69013     0.75987
O     -1.20093     1.16930     2.54749
H     -1.37260     0.20335     2.56358
O     -0.46708    -1.62974     1.39923
H      0.26782    -1.43913     2.00576
O     -1.60443    -1.44071     2.24432
H     -2.30650    -1.48313     1.56453
O      2.54473     1.76769    -2.25581
H      2.60984     0.80279    -2.15808
O      1.43663     1.85533    -3.15224
H      1.65184     2.65554    -3.64059
O      2.83265    -0.56227     2.43610
H      2.42683     0.32819     2.35362
O      1.71740    -1.29888     2.91828
H      1.92515    -1.42238     3.84960
O     -0.14691    -1.64469    -2.46555
H     -0.69073    -0.84520    -2.66045
O     -0.91117    -2.24030    -1.41688
H     -0.38360    -2.01020    -0.63574
