 36
-1364.977896901022
O     -3.01998     1.02980    -1.20185
H     -2.56763     1.87147    -1.37024
O     -1.90996     0.21999    -0.84480
H     -1.43516     0.06085    -1.68219
O     -0.48980    -2.72473    -0.32291
H      0.11980    -3.15418     0.31543
O     -1.29166    -1.96548     0.59183
H     -1.58523    -1.20553     0.05144
O      0.41347    -0.73938     2.21634
H     -0.21344    -1.39172     1.83904
O     -0.14334     0.45628     1.65796
H     -0.63244     0.86775     2.39082
O     -0.08763    -1.09344    -2.40234
H     -0.12216    -1.82078    -1.75013
O      1.23364    -0.58300    -2.17868
H      1.05068     0.25985    -1.70093
O     -1.31432     4.47213    -1.37730
H     -1.06025     4.94964    -2.17367
O     -1.17305     3.11596    -1.80188
H     -0.37810     2.83231    -1.32177
O     -1.31783     2.96806     1.25424
H     -1.73979     3.75072     0.87273
O     -2.41715     2.16451     1.68423
H     -2.52814     1.55401     0.94163
O      2.16647     1.66113    -0.26851
H      2.45937     0.77445     0.03300
O      0.80928     1.42257    -0.59280
H      0.41660     1.18484     0.27800
O      2.53624    -1.86590    -0.22836
H      2.10886    -1.41818    -0.99138
O      2.71027    -0.79235     0.69888
H      1.97114    -0.92898     1.31944
O      2.25116    -4.12995     1.24164
H      2.50715    -3.34659     0.72490
O      0.95125    -3.68842     1.65427
H      0.77367    -4.25394     2.41188
