 28
-1061.6489769162893
O      0.58165    -2.49564    -1.10564
H      0.17282    -2.26808    -0.24148
O     -0.42958    -2.04917    -2.01056
H     -0.85044    -2.87241    -2.27991
O     -2.56099    -0.35995    -0.28549
H     -2.91999     0.47747     0.06901
O     -1.68927     0.18915    -1.28817
H     -1.15667    -0.59442    -1.52939
O     -0.66913    -1.65063     1.11428
H     -1.41331    -1.12357     0.74781
O      0.19560    -0.64910     1.66426
H      3.24765    -2.26145     1.58847
O     -2.73764     2.21088     0.42603
H     -2.09361     2.19140     1.16030
O     -1.87756     2.74045    -0.59877
H     -1.70212     1.91585    -1.08551
O      0.49169     2.37739     0.84002
H     -0.07891     2.86472     0.22576
O     -0.49680     1.91254     1.77127
H     -0.30077     0.95643     1.77469
O      3.11904    -0.44582     1.11511
H      2.99427    -0.25658     0.16145
O      2.55310    -1.75686     1.15398
H      1.08334    -1.04885     1.54464
O      1.29237     0.72661    -1.52677
H      1.19249     1.02583    -0.60992
O      2.38520    -0.18727    -1.43260
H      1.94359    -1.03834    -1.57281
