 40
-1516.638701661013
O      3.66288    -0.27799    -1.48927
H      4.26787    -0.34641    -2.23473
O      3.51015    -1.62953    -1.06008
H      2.67095    -1.86557    -1.51602
O     -0.77056    -0.72557     2.51689
H     -1.05085     0.15074     2.17335
O     -1.79145    -1.61422     2.08185
H     -1.91842    -1.36133     1.15097
O     -0.90997     1.84290     1.73582
H     -0.04197     2.17340     1.45323
O     -1.66513     1.97392     0.53322
H     -2.34989     2.60235     0.78330
O      1.36871     0.55951    -0.43004
H      2.23955     0.36351    -0.83649
O      1.70877     1.48533     0.59495
H      1.82553     0.88813     1.35010
O     -3.10861     1.35083    -1.86553
H     -2.21234     1.64907    -2.11616
O     -3.82577     2.57339    -1.75152
H     -4.52577     2.42456    -2.39267
O     -0.47707     1.20667    -2.24258
H      0.11771     0.96514    -1.49573
O     -0.42737     0.05002    -3.08086
H     -1.25288    -0.39729    -2.81757
O     -2.34513    -0.89362    -0.50163
H     -2.70440    -0.03726    -0.79392
O     -2.14314    -1.55000    -1.75426
H     -1.35153    -2.09191    -1.55472
O      1.13329    -1.87068     1.10912
H      0.43094    -1.50645     1.69725
O      2.28639    -1.14029     1.55945
H      2.92882    -1.40873     0.88904
O      0.27958    -2.56984    -1.31675
H      0.62454    -2.24506    -0.45570
O      1.15725    -1.96299    -2.26283
H      0.64418    -1.17193    -2.54648
O      0.94625     2.10705     4.30769
H      1.54103     2.07861     5.06375
O      1.43129     1.01587     3.52749
H      0.69243     0.38651     3.58484
