 36
-1364.9749231476658
O      1.11504     0.95984    -2.82423
H      1.23338     1.74586    -3.37386
O     -0.04939     0.33781    -3.36223
H     -0.73237     0.69074    -2.77147
O      0.71139    -1.80693    -1.54519
H      0.24833    -1.55666    -2.35592
O     -0.06184    -2.93106    -1.10318
H      0.57437    -3.33399    -0.49222
O     -0.23685    -0.27903     1.69245
H      0.39156    -1.03695     1.74797
O      0.16810     0.57982     2.75005
H      0.56518     1.28916     2.22127
O      1.15751     1.61969     0.27422
H      0.27861     1.59211    -0.17879
O      1.83943     2.67618    -0.39482
H      2.60098     2.17232    -0.71750
O     -1.23016     1.32838    -0.82938
H     -1.60277     0.42437    -0.65072
O     -2.39430     2.13536    -0.99790
H     -2.49216     2.46078    -0.09025
O     -2.27362     1.84434     1.83997
H     -1.75285     1.24726     2.40042
O     -3.60871     1.34130     1.96912
H     -3.61824     0.63221     1.31057
O      2.77005    -0.40598     0.29475
H      2.06188     0.24216     0.52078
O      3.24987     0.14928    -0.92049
H      2.47709     0.04039    -1.49343
O     -2.02655    -1.18514    -0.48357
H     -1.36909    -1.91073    -0.58364
O     -2.49377    -1.33577     0.86395
H     -1.76499    -0.89552     1.33936
O      1.25997    -2.43941     1.97924
H      1.84465    -2.63822     2.71897
O      1.99229    -2.90382     0.84666
H      2.38464    -2.06062     0.53214
