 24
-909.9780653638122
O     -1.31074    -2.05319     0.78641
H     -0.36726    -2.05847     1.03862
O     -1.81840    -1.14063     1.76769
H     -1.78907    -0.30793     1.26277
O      0.10324    -1.78592    -2.06390
H      0.88696    -1.35376    -1.69762
O     -0.92750    -0.89887    -1.63111
H     -1.26577    -1.34527    -0.82163
O      2.10925     0.55726     0.04901
H      1.37978     1.16500    -0.17146
O      2.43102    -0.02759    -1.20835
H      3.02608     0.61727    -1.60362
O      0.18272     1.46444    -2.00220
H     -0.25359     0.58316    -2.03065
O     -0.97623     2.29659    -1.86482
H     -0.61855     3.15632    -2.10326
O      1.04540    -1.26870     1.73110
H      1.48735    -0.64238     1.12833
O      0.58786    -0.38733     2.77199
H     -0.31102    -0.74107     2.87671
O     -0.17101     1.77168     1.19972
H      0.06056     1.08551     1.84917
O     -1.30109     1.17422     0.55490
H     -1.30179     1.64846    -0.29897
