 20
-758.308882498407
O     -2.38698    -1.79556     0.97446
H     -2.72561    -1.13176     0.35568
O     -1.57487    -2.56410     0.07937
H     -1.88470    -3.45926     0.24716
O      2.88115     0.90791    -1.07392
H      3.71874     0.48749    -0.85336
O      2.83918     1.99356    -0.13708
H      2.01708     1.78063     0.35049
O      0.65138     0.37516     1.86356
H      0.85106    -0.29749     1.18608
O      0.44085     1.52232     1.03414
H     -0.48517     1.40809     0.75692
O      0.55813    -0.36750    -1.12287
H      1.41077     0.12213    -1.12117
O      0.84204    -1.39434    -0.16828
H     -0.03504    -1.81550    -0.08559
O     -2.02517     1.37239    -0.07720
H     -2.29684     2.10197    -0.64298
O     -2.05493     0.26600    -0.97798
H     -1.09799     0.06840    -1.06293
