 36
-1364.9772371040895
O      1.97246     4.24494     0.68347
H      2.42223     4.74808     1.36862
O      2.18144     2.91236     1.15013
H      1.26979     2.62633     1.33578
O     -0.97765    -3.39523     0.40985
H     -0.93003    -3.06994    -0.51458
O     -0.13817    -2.44113     1.08403
H      0.71047    -2.51703     0.61506
O      0.44299     0.62268     1.26690
H     -0.24736     0.13230     1.77227
O     -0.31575     1.76571     0.85130
H     -0.27028     1.68048    -0.13228
O     -0.40459     1.42725    -1.75130
H     -0.93470     0.60741    -1.85488
O      0.50552     1.29760    -2.83115
H      1.35282     1.31940    -2.36684
O     -0.82945    -1.97645    -1.86553
H      0.01818    -1.53958    -1.64515
O     -1.74321    -0.89157    -1.64456
H     -2.42123    -1.28227    -1.05466
O     -1.87051    -0.07886     2.28221
H     -2.30223    -0.94903     2.20883
O     -2.70596     0.69499     1.39411
H     -2.04817     1.35203     1.11656
O      3.91978     0.51345    -0.52012
H      4.65365     0.57863    -1.13684
O      3.03222     1.49927    -1.05046
H      2.84622     2.03978    -0.25704
O      1.30062    -0.87447    -0.75440
H      1.05010    -0.30053     0.00796
O      2.34482    -1.66210    -0.19481
H      3.05779    -1.00449    -0.26848
O     -3.21712    -2.20396     1.32988
H     -2.50399    -2.78537     0.99428
O     -3.73204    -1.62571     0.12265
H     -3.84545    -0.71314     0.42585
