 32
-1213.309195855689
O      2.74753    -0.63994     2.03439
H      3.32456    -0.05913     2.53827
O      2.42706     0.16890     0.90855
H      1.53318     0.52208     1.14050
O     -0.58984    -2.15452     0.24166
H      0.34980    -2.18716    -0.01651
O     -1.06193    -1.39518    -0.87818
H     -1.89699    -1.01659    -0.55346
O     -0.70375     1.49114    -1.33593
H      0.00205     1.90939    -1.87602
O     -1.75102     2.45761    -1.46808
H     -2.41364     2.03103    -0.90322
O     -0.02113     1.15580     1.18356
H     -0.32755     1.23452     0.24767
O     -1.09579     0.43564     1.80443
H     -0.60490    -0.24842     2.31886
O      1.31340     2.48367    -2.73564
H      1.30624     2.84758    -3.62625
O      2.44202     1.60484    -2.75623
H      2.00062     0.74956    -2.61000
O      1.67444    -1.59728    -1.00375
H      2.14191    -0.96729    -0.42652
O      1.17450    -0.73140    -2.02646
H      0.22024    -0.75263    -1.80472
O     -0.03547    -2.66901     2.86682
H     -0.44234    -2.57480     1.98881
O      0.38682    -1.32813     3.11164
H      1.27501    -1.30494     2.70971
O     -3.22898     0.98183     0.31981
H     -2.52212     0.77757     0.97094
O     -3.43514    -0.31651    -0.22583
H     -4.34075    -0.51137     0.03390
