 16
-606.6430216227247
O     -1.38015    -0.78949     1.03253
H     -1.94912    -0.91489     0.26336
O     -1.18891     0.63327     0.93401
H     -0.36000     0.75090     1.43900
O      1.73121     1.49933     1.02100
H      1.85699     0.74409     0.42973
O      1.16776     0.82508     2.14770
H      1.55322     1.31260     2.88107
O      1.45017    -0.53018    -1.03560
H      0.79664     0.05985    -1.45854
O      0.63825    -1.70198    -0.87571
H      0.27720    -1.56647     0.01177
O     -0.86460     0.66426    -1.69857
H     -1.04976     0.89141    -0.76702
O     -1.61504    -0.55648    -1.78437
H     -0.88467    -1.19363    -1.74076
