 36
-1364.9735712511667
O      3.27132     0.65045     0.36850
H      2.94555     0.97378    -0.48951
O      2.27787    -0.33788     0.63851
H      2.67413    -1.14000     0.24953
O     -0.48006    -0.74625     2.25502
H     -1.40330    -0.45629     2.18328
O      0.23344     0.49480     2.11694
H      0.98779     0.22426     1.55114
O     -1.48638     2.73715     2.71748
H     -2.29535     2.20326     2.76143
O     -0.79441     2.25460     3.87403
H     -0.17665     1.64004     3.45022
O      1.73322     0.04924    -2.91320
H      1.93801    -0.77620    -2.43501
O      1.88498     1.04176    -1.90436
H      0.98830     1.10963    -1.52435
O     -0.83400    -0.46940    -3.43325
H      0.09586    -0.16386    -3.42083
O     -0.62894    -1.86701    -3.22056
H     -1.05281    -2.25178    -3.99398
O     -0.52218     1.18939    -0.67297
H     -0.86722     0.27260    -0.62568
O     -1.55170     1.92710    -0.02160
H     -1.07400     2.29335     0.74065
O     -3.54472     1.03324     2.43723
H     -4.47399     1.19271     2.24610
O     -3.12909     0.24150     1.32906
H     -2.69775     0.91060     0.75525
O      2.99933    -2.52537    -0.70937
H      3.73369    -2.69913    -1.30481
O      1.93500    -2.30408    -1.62865
H      1.15915    -2.30644    -1.01832
O     -0.12379    -2.10042     0.01318
H     -0.17124    -1.69784     0.91252
O     -1.18478    -1.39459    -0.65099
H     -1.07767    -1.70589    -1.57746
