 24
-909.9698545412117
O     -1.76414    -1.01986    -0.02567
H     -2.37089    -0.38546    -0.45579
O     -1.96134    -0.68532     1.35539
H     -1.17241    -1.09548     1.73789
O      0.65102    -0.24150    -0.81680
H     -0.18792    -0.66647    -0.51510
O      0.69562    -0.62987    -2.19226
H      1.46027    -1.22160    -2.17476
O      3.09148    -0.70057     0.16155
H      2.17825    -0.45282    -0.09443
O      3.43490    -1.55594    -0.93930
H      4.17111    -1.07107    -1.32671
O     -3.00325     1.20596    -0.95545
H     -2.37165     1.87490    -0.64669
O     -2.75930     1.22876    -2.36259
H     -3.63364     1.45467    -2.69353
O      0.80684    -0.89552     2.11111
H      0.82821     0.06347     1.95669
O      2.00268    -1.11438     2.85753
H      2.62143    -1.35704     2.15251
O     -0.58354     2.25928     0.05638
H     -0.01946     1.70305    -0.50271
O     -0.35837     1.66768     1.34584
H     -1.19045     1.19437     1.48571
