 32
-1213.3112166261974
O      1.73178    -1.84561     0.71398
H      1.36701    -2.25017    -0.09458
O      2.54423    -2.85725     1.28327
H      1.94747    -3.26484     1.91986
O     -0.33472    -2.35667    -1.09235
H     -0.89916    -2.22587    -0.30459
O     -0.63342    -1.20525    -1.87579
H      0.13043    -0.62809    -1.68540
O      0.77279     1.56472     1.16927
H     -0.05095     1.56731     1.69939
O      1.69781     0.95543     2.06732
H      2.46260     1.52390     1.93632
O     -1.46646    -2.01235     1.32019
H     -2.08834    -1.25516     1.36147
O     -0.46011    -1.54796     2.23820
H      0.31930    -1.46935     1.65821
O     -0.26607     2.81040    -2.39619
H     -0.40383     3.70278    -2.72716
O      0.37915     2.16555    -3.49476
H      1.12009     1.76431    -3.01947
O      1.27206     0.56998    -1.24037
H      0.94358     1.06580    -0.45473
O      2.65790     0.42364    -0.95179
H      2.61093    -0.22681    -0.23677
O     -1.44027     0.89502     2.63344
H     -1.03584     0.04184     2.87356
O     -2.42859     0.41863     1.70700
H     -2.15502     0.84757     0.86696
O     -2.58110     0.57506    -1.33610
H     -2.05612    -0.19431    -1.62471
O     -1.57052     1.28672    -0.61913
H     -1.18475     1.83834    -1.33108
