 28
-1061.6473692079128
O     -0.91296    -1.22896    -2.23963
H     -0.04202    -1.42249    -1.81497
O     -1.68775    -2.37215    -1.88879
H     -1.75763    -2.81704    -2.73738
O      3.35069    -0.94635     1.53110
H      2.57435    -1.44780     1.20631
O      2.70136    -0.07642     2.46651
H      3.38180     0.03332     3.13598
O     -0.99837    -0.66747     1.19901
H     -1.38407     0.23425     1.20785
O     -2.14912    -1.50252     1.05223
H      0.35446    -1.48443     0.65454
O     -0.62801     1.88728    -1.83680
H     -0.81735     2.66884    -1.29717
O     -1.86752     1.19193    -1.63337
H     -1.60098     0.27453    -1.83703
O     -2.14352     1.80982     0.92787
H     -2.44446     1.62780     0.02114
O     -1.15717     2.81488     0.65356
H     -0.34422     2.35284     0.92251
O      1.40814    -1.45825    -0.93266
H      1.68368    -0.53947    -0.73322
O      1.15876    -1.97975     0.37603
H     -1.97166    -1.89707     0.19076
O      1.13603     1.45374     0.92584
H      1.76926     0.92208     1.45300
O      1.55417     1.14975    -0.40725
H      0.75781     1.37948    -0.92336
