 20
-758.311331214514
O     -0.67089    -0.38520     2.12863
H     -1.59644    -0.18508     1.92654
O     -0.12114     0.93148     1.98613
H      0.74559     0.73188     1.58054
O      2.06517     0.56992     0.50249
H      1.68647     0.73966    -0.39390
O      2.79705    -0.62835     0.27603
H      3.69556    -0.30387     0.38468
O     -0.05820    -1.61736    -0.19778
H     -0.20855    -1.22560     0.68905
O     -1.38344    -1.68693    -0.72262
H     -1.63150    -2.59573    -0.52526
O      0.74998     0.96951    -1.75635
H     -0.20170     1.05255    -1.58374
O      0.85151    -0.19022    -2.58427
H      0.88942    -0.89204    -1.91909
O     -1.65180     1.56858    -0.13514
H     -1.04543     1.59055     0.62631
O     -2.52199     0.51701     0.30582
H     -2.19873    -0.22816    -0.22663
