 24
-909.976471656919
O     -1.48726    -1.31319     0.02917
H     -2.26518    -0.94825    -0.41668
O     -1.44524    -0.46498     1.18168
H     -0.77515    -0.92782     1.73364
O      0.46611    -0.83432    -1.69938
H     -0.19089    -1.11074    -1.03286
O     -0.03067     0.46237    -2.05423
H      0.36986     0.99978    -1.34329
O      2.99503    -0.53186    -0.86986
H      2.07859    -0.70049    -1.18271
O      2.78864    -0.44709     0.54342
H      3.69037    -0.41009     0.88415
O     -3.80309     0.49219    -2.29403
H     -4.30668     1.31174    -2.29131
O     -2.78329     0.79053    -1.33381
H     -1.98672     0.82377    -1.88710
O      1.06832    -0.11450     3.05317
H      0.72800     0.61173     2.49869
O      0.83044    -1.24927     2.21562
H      1.54495    -1.15226     1.57082
O      1.09034     1.56930     0.10085
H      1.74344     0.93076     0.43156
O      0.16448     1.66455     1.18386
H     -0.53404     1.03677     0.92639
