 36
-1364.9695927719488
O      1.37636     2.85053     0.60321
H      0.62638     2.95245    -0.00212
O      0.70586     2.49662     1.81850
H      0.91540     1.54674     1.91275
O      0.37350    -1.75255    -1.11131
H      0.01256    -2.46021    -0.53898
O     -0.76526    -1.30006    -1.85206
H     -1.19269    -0.70342    -1.21033
O     -1.80563    -0.61846     0.78594
H     -2.03147     0.31670     0.99196
O     -2.25495    -1.27291     1.98440
H     -1.53800    -1.90678     2.12050
O      0.87385    -0.19636     1.95190
H      0.09782    -0.32561     1.38021
O      1.81673    -1.10357     1.38552
H      2.16042    -0.57826     0.63044
O     -2.13236     1.82127     1.82016
H     -1.31264     2.33730     1.82386
O     -2.35584     1.64463     3.22359
H     -2.48956     0.68793     3.26406
O     -0.70224     1.46196    -0.86401
H      0.17805     1.11485    -1.13128
O     -1.21668     1.99483    -2.07294
H     -0.75094     1.48423    -2.74786
O      2.60902     0.70409    -0.44697
H      2.39151     1.55361    -0.01363
O      1.72736     0.80075    -1.56830
H      2.01610     0.09011    -2.16620
O      0.96415    -0.77023    -3.81800
H      0.25809    -1.08001    -3.21202
O      0.35634     0.37775    -4.40914
H      0.18461     0.07761    -5.30795
O      0.11119    -3.08644     1.93114
H      0.83835    -2.46685     1.69662
O     -0.18738    -3.67729     0.66745
H      0.23913    -4.53676     0.72537
