 40
-1516.643088204458
O      3.38556     0.16032     0.33592
H      2.77033    -0.51742     0.00270
O      3.74088     0.81803    -0.87781
H      4.69891     0.85922    -0.81464
O     -1.45993     2.52054    -1.15165
H     -1.28818     1.97832    -0.35460
O     -2.40086     1.71845    -1.85719
H     -1.79081     1.13254    -2.34856
O     -1.31217    -0.07453     1.57929
H     -2.20101    -0.13636     1.17266
O     -0.83900     1.11983     0.96525
H      0.06641     1.24739     1.32964
O      1.61852    -0.68335     2.69279
H      1.74764    -0.75320     3.64351
O      0.62320    -1.67459     2.46753
H     -0.14707    -1.11843     2.21128
O      0.98017     2.47124    -2.24408
H      0.04551     2.67434    -2.04910
O      1.28379     1.79591    -1.01815
H      2.24841     1.68319    -1.06103
O     -0.76208    -1.23170    -1.94370
H     -1.66748    -1.11732    -1.58180
O     -0.53093     0.01108    -2.59971
H      0.22983     0.36421    -2.10844
O     -3.21863    -1.09968    -0.91404
H     -3.09476    -1.81815    -0.27655
O     -3.46726     0.02672    -0.06335
H     -3.27060     0.75259    -0.69207
O      1.03589    -2.96934     0.17342
H      0.98912    -2.58668     1.07115
O      1.40160    -1.80490    -0.56499
H      0.60394    -1.69451    -1.12897
O     -1.83207    -3.10867     1.50015
H     -1.88344    -3.99405     1.87481
O     -1.64514    -3.37955     0.10754
H     -0.66411    -3.30981     0.03174
O      1.68570     3.39136     1.27310
H      1.18253     3.35055     0.44824
O      1.56936     2.05041     1.72492
H      2.40916     1.65114     1.45278
