 36
-1364.9779029646563
O      0.93415     1.20013    -1.92354
H      1.83214     0.88018    -1.67487
O      0.69761     2.23203    -0.95513
H      0.72860     1.72256    -0.11414
O      0.53301    -1.65814    -1.25793
H     -0.14945    -1.56233    -1.94627
O     -0.21966    -1.54056    -0.05227
H     -0.30964    -0.57400     0.07575
O     -1.78957    -0.79825     3.38886
H     -2.20358    -0.65747     2.52586
O     -0.40132    -0.74842     3.03004
H     -0.11673    -1.66945     3.13965
O      0.86635     0.78956     1.27923
H      0.34911     0.37747     2.00780
O      2.21120     0.40988     1.58232
H      2.12320    -0.55190     1.72779
O     -1.70713     2.69739    -1.88258
H     -0.77948     2.68640    -1.53456
O     -2.42045     3.20188    -0.75880
H     -2.95030     3.89743    -1.15665
O     -1.80282     0.89282     0.44200
H     -2.22768     1.71165     0.11989
O     -2.88187    -0.04948     0.47261
H     -2.75233    -0.47500    -0.39122
O      3.17122    -1.21758    -0.90764
H      2.22436    -1.37041    -1.07675
O      3.22315     0.21082    -0.91325
H      3.09745     0.41254     0.03383
O     -1.26133    -0.35035    -3.19042
H     -0.58541     0.32683    -3.03945
O     -2.30328     0.05325    -2.30351
H     -2.21016     1.02531    -2.26929
O      2.23903    -2.22000     1.98079
H      2.88816    -2.75939     1.51278
O      1.02847    -2.95483     1.83444
H      0.59868    -2.48087     1.09264
