 24
-909.9806806277466
O     -3.59876     0.29610     0.35411
H     -2.98414    -0.06892    -0.31053
O     -2.91826    -0.05275     1.56271
H     -3.51934    -0.68903     1.96098
O      0.66479    -1.31282    -2.09414
H      1.19580    -1.23500    -1.28374
O      1.07069    -0.08324    -2.72965
H      0.21719     0.38866    -2.69277
O      2.36204     0.94302    -0.56266
H      2.16901     0.82431    -1.50606
O      2.24675    -0.42661    -0.15455
H      2.39624    -0.34864     0.80885
O     -1.30330     0.77323    -1.93564
H     -1.00225     1.10964    -1.07094
O     -1.78466    -0.51300    -1.51900
H     -0.97466    -1.04604    -1.64876
O      2.52374    -0.28301     2.47929
H      2.65509    -1.01110     3.09347
O      1.38208     0.38013     3.03524
H      0.71293     0.18201     2.34852
O     -0.14977     1.19137     0.42527
H      0.79532     1.17176     0.18836
O     -0.32438    -0.08294     1.05878
H     -1.28359    -0.04193     1.27560
