 36
-1364.9767441857286
O      0.70555     1.21248     3.13050
H      1.37420     0.93556     2.46514
O      0.48068     2.55331     2.72053
H      0.85452     3.04962     3.45458
O     -1.73509    -1.40104     1.55851
H     -0.87100    -1.86349     1.74108
O     -1.28803    -0.04695     1.42185
H     -0.86397     0.13044     2.27699
O      0.18432    -2.49535    -1.33383
H     -0.78744    -2.36209    -1.29142
O      0.65017    -1.14454    -1.37802
H      0.60290    -0.90415    -2.32027
O      1.01871     1.08819    -3.12803
H      1.17820     1.68525    -3.86538
O     -0.30949     0.63835    -3.41285
H     -0.73912     0.86032    -2.55396
O     -2.46607    -2.28760    -0.87990
H     -2.40717    -1.92961     0.03198
O     -3.15139    -1.26091    -1.57104
H     -3.93247    -1.73407    -1.86621
O      1.59007     2.38326    -0.55769
H      1.04446     2.01217    -1.27256
O      0.63275     3.19663     0.11973
H      0.67898     2.86797     1.03686
O      2.33812    -0.76022     0.62864
H      1.71817    -0.69924    -0.12683
O      2.38913     0.55397     1.17566
H      2.29965     1.16138     0.40878
O     -1.73644     2.28217    -0.69384
H     -1.06554     2.91934    -0.40011
O     -0.88301     1.16348    -0.90196
H     -0.99197     0.65173    -0.06413
O      0.64998    -2.36927     1.97770
H      1.42817    -1.88420     1.63091
O      0.59972    -3.53885     1.16486
H      0.45635    -3.16237     0.27732
