 32
-1213.3138699991562
O      1.21457     1.65272     2.95763
H      1.43514     0.80367     2.51901
O      2.07391     2.58904     2.31394
H      1.59143     2.77129     1.49412
O     -1.62658    -3.20280    -2.82529
H     -2.10574    -3.97461    -2.51072
O     -1.95403    -2.25942    -1.80878
H     -1.80075    -1.42492    -2.29342
O      0.20425     0.21260    -2.72757
H      0.46528    -0.70570    -2.50043
O     -1.20954     0.17865    -2.52959
H     -1.30581     0.67357    -1.70504
O     -1.06445    -0.88427     0.69178
H     -1.37800    -1.35508    -0.09762
O     -1.38757     0.47152     0.36499
H     -1.72358     0.79595     1.23372
O      0.54339     2.25619    -0.19292
H     -0.09357     1.56951     0.07265
O      1.57017     1.48006    -0.82093
H      1.14667     1.22315    -1.66508
O      0.82532    -2.31386    -2.14487
H      0.09976    -2.86868    -2.47744
O      0.86091    -2.75620    -0.78095
H      1.49711    -2.12599    -0.37995
O      2.19863    -0.80016     0.45283
H      2.06301     0.08218     0.04646
O      1.43728    -0.69924     1.65681
H      0.53993    -0.92606     1.34694
O     -1.20159     2.54847     2.50024
H     -0.28344     2.30641     2.78404
O     -1.87661     1.32290     2.79704
H     -2.46395     1.58072     3.51179
