 36
-1364.9754942685372
O      1.88443     0.42503     2.30798
H      1.92837    -0.51989     2.53489
O      3.26055     0.80804     2.26236
H      3.31550     1.10832     1.34523
O     -3.11924     1.07837     0.30538
H     -2.40564     1.62190    -0.08500
O     -3.76396     0.53613    -0.84035
H     -4.54789     1.09024    -0.91431
O     -0.76442    -1.50125    -0.45437
H     -0.56599    -0.57948    -0.16250
O      0.54989    -2.06151    -0.49620
H      0.60163    -2.43602     0.40480
O     -1.41846    -0.99070    -2.97877
H     -1.30208    -1.38729    -2.08818
O     -1.84392     0.33656    -2.68243
H     -2.61571     0.20004    -2.10143
O      0.96954     0.34366    -2.72778
H      0.20459    -0.15645    -3.06895
O      1.93750    -0.67679    -2.44005
H      1.45206    -1.25205    -1.82368
O     -0.99446     0.37085     3.25118
H     -0.13118     0.49302     2.82314
O     -1.61086    -0.57068     2.38006
H     -2.11349    -0.01176     1.76312
O     -0.79148     1.93486    -0.77668
H     -0.87405     1.39102    -1.58675
O     -0.21871     0.98398     0.13594
H      0.74332     1.16671     0.03271
O      2.63149     1.12871    -0.59726
H      2.76177     0.43509    -1.27579
O      2.55391     2.33492    -1.35423
H      1.88322     2.09134    -2.00909
O      1.04822    -2.12627     3.08452
H      0.51202    -2.09937     3.88200
O      0.10543    -2.54199     2.09470
H     -0.59938    -1.85751     2.18452
