 32
-1213.3055921458324
O      2.69450    -1.35683     0.64768
H      1.91753    -1.59062     0.11945
O      2.25957    -0.11857     1.21226
H      2.32052     0.47448     0.42882
O     -1.08608    -1.80687     0.44546
H     -0.66762    -1.57521     1.29894
O     -0.13879    -1.32428    -0.50226
H     -0.51667    -0.47029    -0.81675
O     -0.98206     0.92646    -1.78802
H     -0.15910     1.45194    -1.77821
O     -1.86603     1.76752    -1.03268
H     -2.45458     1.09402    -0.63990
O     -0.10852     2.52945     0.95234
H     -0.88764     2.65618     0.39214
O     -0.42686     1.21586     1.43643
H     -0.03980     1.22105     2.32299
O      1.39992     2.16565    -1.36350
H      1.17999     2.41917    -0.45153
O      2.32002     1.09380    -1.14767
H      2.04840     0.47806    -1.85503
O      1.39483    -1.95339    -2.91255
H      0.61611    -2.06531    -2.34640
O      1.39940    -0.53051    -3.04239
H      1.27070    -0.39295    -3.98775
O     -0.27306    -1.41072     2.99593
H     -0.20966    -2.11077     3.65323
O      0.74545    -0.50768     3.41897
H      1.34241    -0.52185     2.64264
O     -3.97112    -0.17589     1.15542
H     -4.85060    -0.43130     0.86552
O     -3.24687    -0.32439    -0.06376
H     -2.56318    -0.98593     0.18125
