 20
-758.2983046533936
O      0.12559    -2.05639    -0.44643
H     -0.53415    -1.94596    -1.15328
O      0.65608    -0.72639    -0.40755
H      1.39738    -0.84618     0.22227
O      2.24332     0.02433     2.44728
H      1.92312     0.73807     1.86669
O      2.54480    -0.96472     1.44969
H      2.61366    -1.75978     1.98825
O      0.35729     2.69476     1.52763
H     -0.44767     2.24914     1.22432
O      1.32617     1.92852     0.80396
H      1.78152     2.59913     0.28344
O     -1.64905    -0.50540    -2.80482
H     -1.76998    -0.01667    -1.97454
O     -1.84678    -1.84304    -2.32509
H     -1.80861    -2.33897    -3.14843
O     -1.41948     0.58033     0.58702
H     -0.66732     0.08913     0.17046
O     -2.19032     0.97380    -0.55433
H     -3.07891     0.77379    -0.24545
