 24
-909.9785456404139
O     -3.50476    -0.82740    -0.11453
H     -3.48288     0.02183    -0.57308
O     -2.37450    -0.68964     0.74227
H     -1.74192    -1.31722     0.34166
O      0.31876    -1.07683    -1.35908
H     -0.48038    -0.59859    -1.65629
O     -0.15096    -1.81686    -0.22817
H      0.56033    -1.66626     0.41320
O      2.15446     0.77416    -0.78787
H      1.70086    -0.02428    -1.11833
O      3.42932     0.24617    -0.41827
H      3.32062     0.16533     0.53742
O     -2.15446     1.34309    -1.41912
H     -1.39732     1.49493    -0.81575
O     -1.54694     0.49909    -2.39142
H     -1.41241     1.09683    -3.13361
O      2.70022    -0.36535     2.23011
H      3.11795    -1.11330     2.66333
O      1.46750    -0.96066     1.83906
H      0.87456    -0.18147     1.88599
O     -0.12884     1.67818     0.27352
H      0.77970     1.41911     0.00863
O     -0.36897     0.91443     1.45951
H     -1.21399     0.46509     1.24576
