 36
-1364.969694126518
O      1.56007     1.89426     1.22873
H      2.20767     1.21295     1.48058
O      1.45125     2.72439     2.38495
H      0.70198     2.31342     2.83654
O     -0.48705    -1.21525    -1.25624
H     -1.21414    -0.75044    -1.70242
O     -1.15520    -1.99834    -0.26802
H     -1.23870    -1.37628     0.49273
O     -1.47459    -0.58100     1.98242
H     -2.20220     0.07388     2.00610
O     -0.36046     0.21171     2.40583
H      0.37881    -0.31503     2.04585
O      1.78451    -1.03920     1.38620
H      1.73796    -1.98895     1.14115
O      3.00364    -0.57231     0.81830
H      2.76050    -0.45888    -0.11482
O     -3.44089     1.20121     1.61963
H     -4.38841     1.10461     1.74951
O     -3.31596     0.92021     0.22432
H     -2.41105     1.25470     0.06842
O     -0.71513     1.45534    -0.10208
H      0.03133     1.53540     0.54052
O     -0.28866     2.28628    -1.18969
H      0.61629     1.96089    -1.31675
O      2.02531    -0.53349    -2.01577
H      1.13662    -0.83568    -1.73794
O      1.76672     0.77782    -2.51973
H      1.05951     0.60651    -3.16838
O     -1.52337     0.81169    -3.08090
H     -1.11440     1.46149    -2.47225
O     -0.46727     0.55201    -3.99903
H     -0.71621     1.09315    -4.75505
O      0.78507    -3.82004     1.66840
H      1.44208    -4.51270     1.77088
O      1.03715    -3.44207     0.31259
H      0.15788    -3.11590     0.03232
