 40
-1516.6408195966706
O      0.72087     1.57642    -2.37391
H      0.80249     1.50547    -1.39551
O     -0.64454     1.97539    -2.48567
H     -0.56232     2.87276    -2.82179
O      3.74177     0.73797     0.61042
H      2.95604     1.31001     0.73408
O      4.05898     0.35356     1.94738
H      3.27967    -0.17402     2.17774
O     -2.64371     0.97750     0.80500
H     -2.26487     0.07161     0.67438
O     -2.87475     1.40945    -0.53023
H     -1.97553     1.51554    -0.87639
O     -0.94408     0.69926     3.32458
H     -1.42856     0.84644     4.14134
O     -0.97434     1.97329     2.69172
H     -1.63448     1.79738     1.99015
O      0.52006     1.12042     0.22449
H      0.85227     0.21222     0.39866
O      1.35953     1.93615     1.04180
H      0.78328     2.05223     1.81654
O      1.15422    -0.62156     2.35233
H      0.30746    -0.27283     2.68741
O      0.82797    -1.97636     2.00998
H      1.24549    -2.03522     1.12886
O     -1.70845    -2.39226     1.19587
H     -0.86621    -2.42206     1.68523
O     -1.42317    -1.29441     0.33463
H     -1.13193    -1.71158    -0.49958
O     -3.29041    -0.79194    -1.99626
H     -3.33770     0.01222    -1.44005
O     -2.68382    -0.25914    -3.17572
H     -3.31429    -0.52228    -3.85471
O     -0.47033    -1.47601    -2.25298
H     -1.17869    -1.03039    -2.76170
O      0.72801    -1.14808    -2.95563
H      0.73850    -0.17515    -2.90938
O      1.75713    -1.55192    -0.42240
H      1.52662    -1.58176    -1.37524
O      3.18560    -1.70722    -0.41164
H      3.46410    -0.80988    -0.13407
