 24
-909.9834574048547
O     -2.24438    -0.60714    -0.35085
H     -2.10007     0.31937    -0.07532
O     -1.37924    -1.27702     0.56849
H     -0.59340    -1.44925     0.00755
O      0.02951     1.74133    -0.50363
H     -0.19702     1.18601    -1.26756
O     -1.22322     1.80056     0.18848
H     -0.93481     1.70583     1.11702
O      1.74541    -0.67640    -1.14066
H      2.06398    -0.58331    -0.22213
O      0.72685    -1.67560    -0.98304
H      0.43482    -1.75974    -1.90712
O     -0.59758    -1.37039    -3.30129
H     -0.34103    -1.04572    -4.16890
O     -0.93365    -0.14723    -2.64960
H     -1.57025    -0.47692    -1.98669
O      2.06523     1.33588     1.53983
H      1.66256     1.53220     0.68320
O      2.25961    -0.08020     1.45303
H      1.46854    -0.38641     1.93813
O     -0.11212    -0.19509     2.64541
H     -0.74643    -0.50430     1.96704
O     -0.36313     1.21557     2.68621
H      0.55459     1.52873     2.62915
