 32
-1213.3119987615494
O      2.66276    -0.42069    -0.96131
H      1.96925    -0.57460    -1.63216
O      2.37931    -1.44107     0.00387
H      2.62859    -0.96446     0.81256
O     -1.47816    -1.40989    -1.34835
H     -1.02758    -2.07335    -0.77990
O     -1.22367    -0.22444    -0.58556
H     -2.11660     0.14783    -0.40858
O     -0.01769    -3.64932     1.34119
H     -0.46758    -2.97114     1.86420
O      0.11155    -2.99610     0.08498
H      0.96290    -2.52504     0.16485
O     -0.51862     2.84798    -0.86101
H     -0.13200     2.08260    -1.30763
O     -0.39075     2.47360     0.50535
H      0.58192     2.30898     0.59203
O      2.33604     0.75353     1.59179
H      1.41762     0.51425     1.82437
O      2.13351     1.67896     0.51328
H      2.40718     1.10919    -0.23379
O      0.38959     0.88184    -3.02248
H      0.52152     0.92820    -3.97578
O      0.65055    -0.49621    -2.76197
H     -0.21289    -0.81083    -2.43067
O     -0.11289    -0.20704     1.77323
H     -0.40058    -0.30420     0.83800
O     -1.16449    -0.90862     2.43267
H     -1.86369    -0.23656     2.39015
O     -3.30919     1.26912     0.24099
H     -3.29850     2.18582    -0.05672
O     -2.57728     1.32347     1.46522
H     -1.73507     1.74689     1.17729
