 24
-909.9706910655277
O     -1.29707    -0.38028    -1.41711
H     -1.88935     0.40487    -1.44452
O     -1.92952    -1.12886    -0.36856
H     -1.34799    -1.90527    -0.36817
O      0.68526    -2.20377    -1.96895
H      0.09739    -1.42950    -2.01824
O      0.03400    -2.92828    -0.91513
H     -0.15348    -3.76437    -1.35380
O      2.09467     0.37929    -0.05212
H      2.41328     0.15716     0.84595
O      2.89699    -0.45649    -0.88461
H      2.26961    -1.15735    -1.08996
O     -2.23277     2.82188    -0.83733
H     -1.52286     2.38221    -0.32823
O     -2.93972     1.68198    -1.33610
H     -3.75545     1.70442    -0.82544
O      1.65530     0.91168     2.78561
H      0.78491     0.66875     2.42999
O      2.37689    -0.29858     2.53364
H      3.08651    -0.22857     3.17840
O     -0.22805     1.56884     0.46349
H      0.58123     1.15637     0.10026
O     -0.67259     0.54289     1.36146
H     -1.21192    -0.01933     0.77030
