 20
-758.3034186492324
O      1.81207    -2.45288     0.77153
H      1.85502    -1.48111     0.69904
O      0.44922    -2.57753     1.20904
H      0.41237    -3.50950     1.44115
O     -0.97588    -1.16312    -0.58617
H     -0.44973    -1.74872    -0.00622
O     -0.20606    -1.17999    -1.79226
H      0.48354    -0.52968    -1.58658
O     -0.35519     1.41526     1.12666
H     -0.92562     1.71497     0.38288
O     -0.05649     2.64135     1.80131
H     -0.47427     2.47631     2.65095
O      1.90941     0.20442     0.38951
H      1.08112     0.66598     0.65462
O      1.91370     0.43722    -1.02308
H      2.78988     0.11192    -1.24230
O     -2.68689     0.95644    -0.72352
H     -2.12116     0.16803    -0.81937
O     -1.74265     1.97483    -1.07942
H     -2.31223     2.63631    -1.48313
