 36
-1364.9726070965319
O     -0.70421     2.04413     2.79308
H     -0.96069     1.15821     2.49077
O      0.71221     1.96369     2.57715
H      0.80344     2.64100     1.88034
O     -3.48252     0.84325    -1.57860
H     -2.99976     0.26386    -2.18242
O     -2.56160     0.87978    -0.48594
H     -2.32646     1.82111    -0.44209
O      2.55911    -1.49982     2.40241
H      3.02174    -1.59548     1.56212
O      1.46851    -0.70037     1.96813
H      1.54938     0.12644     2.46820
O      0.27379     1.35258    -1.33230
H     -0.12776     0.71646    -1.95867
O      1.17716     0.51734    -0.62099
H      0.68794     0.28503     0.19267
O     -1.18357    -1.59817     1.49027
H     -0.30831    -1.77963     1.86048
O     -1.05586    -0.18614     1.39251
H     -1.63006     0.05560     0.63458
O     -1.33063     3.33342     0.55909
H     -1.38613     3.06927     1.49404
O      0.09755     3.35050     0.43214
H      0.22593     2.67743    -0.26386
O     -2.02040    -0.79085    -3.31078
H     -1.92201    -0.63662    -4.25257
O     -0.67221    -0.64501    -2.87885
H     -0.59559    -1.39631    -2.24808
O      0.50896    -3.35234    -0.55851
H      1.27811    -2.79041    -0.74769
O     -0.55040    -2.48247    -0.96665
H     -0.99187    -2.27938    -0.11792
O      2.58025    -1.64782    -1.21192
H      2.16473    -0.77103    -1.07782
O      3.77957    -1.49364    -0.45841
H      4.43894    -1.78395    -1.09465
