 36
-1364.9741171620183
O      0.48420     0.30381     2.64133
H     -0.43270     0.59300     2.77867
O      0.88869     1.16606     1.56617
H      0.95157     0.53892     0.81440
O     -2.00134     0.68082    -0.84073
H     -1.86747    -0.05964    -0.21168
O     -1.58618     1.82518    -0.09160
H     -0.91509     2.23454    -0.68848
O      2.59873    -0.72367    -3.70559
H      3.39500    -0.72292    -4.24603
O      2.96725     0.13991    -2.62359
H      2.89102    -0.47012    -1.87265
O      0.39682     2.73589    -1.54036
H      0.81075     2.02282    -2.04906
O      1.43381     3.18886    -0.67955
H      1.19063     2.76487     0.15712
O     -1.68522    -1.55938     0.61626
H     -0.77151    -1.86495     0.72110
O     -2.09899    -1.52969     1.99350
H     -2.70858    -0.77035     1.99710
O     -3.41077     0.78420     2.31860
H     -3.81016     1.06838     3.14372
O     -2.10123     1.31786     2.45292
H     -1.95825     1.62997     1.53402
O      0.05044    -0.88261    -2.86607
H      0.87735    -0.81625    -3.38439
O     -0.43521     0.45931    -2.98006
H     -1.11271     0.49275    -2.27213
O      0.42479    -3.01316     2.87034
H     -0.48929    -2.69296     2.90443
O      0.96908    -2.16279     1.86976
H      0.93110    -1.28003     2.29973
O      2.14686    -1.44092    -0.47087
H      1.91495    -1.89372     0.36093
O      1.03480    -0.53553    -0.49877
H      0.59365    -0.76201    -1.36192
