 32
-1213.3042685830437
O      0.17532     0.36911     3.32226
H     -0.24336     1.07013     2.79861
O      1.49825     0.90752     3.43965
H      1.81351     0.44377     4.21909
O     -2.20095    -0.04687    -2.74557
H     -2.75052    -0.04205    -1.94559
O     -2.43381    -1.33951    -3.30474
H     -1.68432    -1.83545    -2.94758
O      2.40782     0.37614    -0.10828
H      1.98099    -0.37455     0.35647
O      1.89941     1.50105     0.61913
H      2.13405     1.27304     1.53147
O     -0.41923     2.71052     1.73146
H      0.01634     3.57132     1.75176
O     -0.87057     2.60332     0.39047
H     -0.12220     2.14002    -0.03060
O      1.07093     0.35570    -2.47642
H      1.77225     0.50150    -1.81493
O      0.03196     1.18442    -1.94239
H     -0.75221     0.82246    -2.40076
O     -0.07318    -1.81978    -1.52049
H      0.43365    -1.12361    -2.00239
O      0.80800    -2.94508    -1.54144
H      0.91787    -3.08188    -0.59126
O      0.35895    -2.44263     1.43136
H     -0.46953    -1.98386     1.21751
O      1.26146    -1.34778     1.58219
H      0.87286    -0.84413     2.32758
O     -2.56199     0.50745     0.06895
H     -2.16591     1.39416     0.13256
O     -1.52434    -0.28855     0.64517
H     -1.04062    -0.57979    -0.14968
