 36
-1364.971719086447
O      0.32794     0.91848    -0.26913
H      1.14499     0.68024    -0.74820
O      0.27345     2.32810    -0.49849
H     -0.40887     2.31766    -1.19524
O     -2.22910     1.04070    -1.10870
H     -1.64788     0.32778    -0.78713
O     -1.52657     1.50638    -2.24896
H     -1.21798     0.67542    -2.66810
O     -0.73048     0.65795     2.93900
H     -1.50540     1.18267     3.18999
O      0.23309     1.65232     2.56619
H     -0.00323     1.83687     1.64267
O      0.49605    -1.17086    -3.16664
H      0.56323    -1.75034    -2.37304
O     -0.90391    -0.90181    -3.18086
H     -1.20996    -1.39452    -3.94598
O     -3.53304     0.41825     1.77626
H     -4.46884     0.53619     1.57438
O     -2.96719     1.69443     1.46201
H     -2.66993     1.55174     0.53886
O     -0.87437    -1.76774     1.14442
H     -0.60914    -0.95941     1.62126
O     -2.03509    -1.36500     0.42518
H     -2.55244    -0.87068     1.08783
O      2.62477     0.20597    -1.47888
H      2.95495     0.64160    -2.27077
O      3.72917     0.29502    -0.58355
H      3.24819     0.33088     0.27158
O      2.09681    -1.17021     2.06900
H      2.20259    -1.60251     1.20081
O      2.45945     0.17936     1.76041
H      1.74343     0.69488     2.17555
O      0.79525    -2.46055    -0.85800
H      0.25350    -2.20066    -0.07892
O      2.14045    -2.21559    -0.43489
H      2.38267    -1.43831    -0.96921
