 32
-1213.308862760034
O      0.21810     2.72013     1.48319
H     -0.57252     2.40160     1.93963
O      0.77161     1.51842     0.97150
H      0.38996     1.49881     0.06302
O      0.10736    -2.79888    -2.27103
H      0.79051    -2.99181    -1.61581
O     -0.55354    -1.71629    -1.62667
H     -0.20460    -0.91995    -2.08170
O     -0.00633     0.72719    -2.51558
H      0.88613     1.09738    -2.58910
O     -0.48593     1.44626    -1.37149
H     -1.34773     1.01353    -1.19665
O     -2.38155    -1.03779     0.12681
H     -1.94942    -1.38340    -0.67926
O     -2.64039     0.31442    -0.25377
H     -2.70213     0.73139     0.62006
O      2.57466     1.18903    -1.45143
H      2.41405     0.60379    -0.68009
O      3.09211     0.22596    -2.38188
H      4.03603     0.41882    -2.36199
O      2.39439    -2.00025    -0.90663
H      2.59013    -1.45692    -1.68181
O      2.12317    -0.94737     0.02569
H      1.29184    -1.25226     0.45182
O     -0.03033    -0.45901     2.48621
H      0.50373     0.24352     2.05366
O     -0.05742    -1.43998     1.43845
H     -0.96259    -1.35360     1.07993
O     -2.74420     1.50031     3.76257
H     -3.59043     1.04391     3.79728
O     -2.26550     1.09960     2.48325
H     -1.56423     0.44792     2.70393
