 16
-606.637906156914
O     -2.55763    -0.31431     1.69370
H     -2.59148    -0.74866     2.55075
O     -1.18746    -0.52653     1.33806
H     -0.81051     0.36510     1.42071
O      0.39605     1.83695     0.56495
H      0.71539     1.48538    -0.29382
O      1.23055     1.07140     1.45084
H      1.97895     1.66637     1.56388
O      1.48610     0.35962    -1.40010
H      0.79356    -0.31975    -1.53007
O      2.43745    -0.35213    -0.60088
H      1.99828    -0.30305     0.25770
O     -0.55630    -1.36920    -1.16732
H     -0.91753    -1.10257    -0.30062
O     -1.30887    -0.53413    -2.04941
H     -1.27437    -1.06579    -2.84721
