 32
-1213.3112060791484
O      3.01976    -1.61738     1.03835
H      2.83750    -1.43300     0.10181
O      2.58605    -0.40412     1.64388
H      3.11934     0.28191     1.20302
O     -1.30570    -0.70507    -1.74389
H     -0.98621     0.20326    -1.57812
O     -0.24151    -1.46754    -1.17612
H     -0.39102    -1.32692    -0.21319
O     -3.97029    -2.36856    -0.03939
H     -4.76022    -2.89519    -0.19256
O     -4.04360    -1.44854    -1.12999
H     -3.10833    -1.40857    -1.37696
O      0.04349     1.58060    -1.32262
H      0.84917     1.27413    -1.78245
O      0.61350     2.09259    -0.12149
H      0.37749     1.40717     0.54106
O      3.75146     1.79312     0.58554
H      4.16272     2.47344     1.12695
O      3.20479     2.54326    -0.49343
H      2.24771     2.51648    -0.27815
O      2.28750     0.47759    -2.21984
H      2.97645     1.00382    -1.79179
O      2.29366    -0.69292    -1.41101
H      1.35038    -0.97221    -1.44357
O     -0.74845    -0.82984     1.34456
H     -1.64129    -0.43109     1.32732
O      0.05331     0.28724     1.72241
H      0.94203    -0.12912     1.81575
O     -3.85070     0.53223     2.37528
H     -4.09776     1.43813     2.17013
O     -3.26113     0.13354     1.13709
H     -3.88403    -0.53758     0.80424
