 40
-1516.6452672174523
O     -0.05821     1.55944    -2.28274
H     -0.99417     1.83120    -2.17418
O      0.62927     2.35403    -1.31747
H      1.03626     1.66749    -0.74229
O     -2.17897    -0.56569    -2.90065
H     -2.03324    -1.41886    -3.32683
O     -3.10559    -0.87331    -1.85091
H     -2.51315    -0.86955    -1.07304
O      1.64258    -2.32300     3.35963
H      1.54779    -2.83268     2.53090
O      2.69371    -1.42696     2.99478
H      3.35376    -1.62387     3.66864
O     -1.08657    -0.77619    -0.05979
H     -0.41958    -1.07202    -0.72102
O     -0.81615    -1.58351     1.07716
H     -0.43503    -0.92547     1.68853
O     -3.38511     1.85331    -0.98853
H     -3.68951     1.10987    -1.52785
O     -2.58194     2.56569    -1.94844
H     -2.39412     3.36065    -1.42866
O      1.70357     0.56632     0.34336
H      1.87782     0.62162     1.29752
O      2.84577    -0.11620    -0.18259
H      2.50048    -0.25781    -1.08636
O     -1.17562     3.56825     0.24966
H     -0.41756     3.23363    -0.27108
O     -1.44162     2.45764     1.11755
H     -2.03398     1.89953     0.58204
O      1.10026    -3.41000     0.91764
H      0.30884    -2.84219     0.79754
O      2.00671    -2.90441    -0.05970
H      2.40730    -2.12872     0.36614
O      0.38492     0.12734     2.80077
H      1.00631    -0.33667     3.38656
O      0.81513     1.48141     2.87661
H      0.08813     1.91101     2.40051
O      1.40723    -0.63729    -2.34432
H      0.75632     0.09105    -2.45233
O      0.57081    -1.72857    -1.94815
H      1.19253    -2.26548    -1.41044
