 32
-1213.308576997477
O      2.72120     1.46463     0.81029
H      3.36384     2.17757     0.83201
O      1.80561     1.96735    -0.15881
H      0.94841     1.86351     0.30855
O     -1.66769    -1.73469    -0.05218
H     -1.23961    -1.95228     0.79316
O     -0.58652    -1.13439    -0.76814
H     -1.02502    -0.36680    -1.19891
O     -1.21817     0.39314    -3.25496
H     -0.25276     0.48889    -3.16421
O     -1.62886     0.94437    -1.99980
H     -2.52312     1.24375    -2.19840
O     -0.63464     1.50271     0.83050
H     -1.52809     1.30332     0.47261
O     -0.85165     1.21182     2.21696
H     -0.36588     0.37475     2.32483
O      1.32540     0.53528    -2.37746
H      1.60066     1.19341    -1.71692
O      2.56280    -0.06489    -2.75550
H      2.75014    -0.59719    -1.96437
O      1.76884    -1.59805     0.29907
H      1.06499    -1.37618    -0.34703
O      2.95254    -1.02899    -0.24116
H      2.97420    -0.17014     0.21478
O     -0.53907    -2.22016     2.37080
H     -0.35055    -2.81605     3.10082
O      0.41620    -1.18211     2.56754
H      1.01601    -1.35043     1.80712
O     -3.35121     0.24520     1.92635
H     -2.55863     0.64247     2.32283
O     -3.04367     0.44594     0.54326
H     -2.74863    -0.45232     0.28816
