 36
-1364.9690543579543
O      1.00758    -1.72119     0.06893
H      0.31750    -1.33032     0.65094
O      2.20173    -1.52892     0.83122
H      2.52143    -0.67656     0.47039
O     -2.42045    -2.75491     1.97348
H     -2.28273    -3.59469     1.52554
O     -3.26596    -2.04340     1.05756
H     -2.64276    -1.36299     0.72755
O     -0.45118    -1.14097     2.67856
H     -1.21752    -1.73531     2.51766
O      0.45848    -2.00238     3.37796
H      1.21273    -1.96452     2.77343
O      2.68921    -0.84752    -2.78634
H      3.22048    -1.55121    -3.17017
O      1.45193    -1.51090    -2.54082
H      1.44904    -1.63305    -1.56121
O     -2.87584     2.82264    -2.02886
H     -3.15923     3.74128    -2.01695
O     -1.75512     2.87635    -1.15498
H     -2.03914     2.27295    -0.43570
O     -2.06389     0.98829     0.73907
H     -1.38473     1.21459     1.39842
O     -1.51229    -0.21731     0.19438
H     -1.16204     0.07658    -0.67818
O      0.30850     1.55287    -2.24556
H     -0.35516     2.20491    -1.94220
O     -0.50062     0.37420    -2.21385
H      0.11784    -0.28413    -2.57579
O      2.53978     1.89435    -0.77155
H      1.72734     1.70858    -1.28247
O      3.12261     0.61123    -0.58933
H      3.05841     0.21076    -1.47864
O      0.74986     1.19988     1.29360
H      1.41337     1.89566     1.16614
O      0.00134     1.63756     2.43446
H     -0.00762     0.80477     2.92925
