 36
-1364.9828127813842
O      1.73733     1.90189    -1.41088
H      1.16598     1.27438    -1.90194
O      2.62362     1.01659    -0.72420
H      2.13721     0.89707     0.11752
O     -1.80570     1.56498     2.66815
H     -1.02326     1.11827     3.01832
O     -2.45010     0.45297     2.03401
H     -2.97763     0.88809     1.34745
O     -2.18071    -1.58564    -0.46465
H     -1.41315    -1.43788    -1.05043
O     -1.49292    -1.81271     0.76456
H     -1.86006    -1.10963     1.32886
O      0.37812     3.18021     0.53154
H      0.84197     2.84469    -0.26168
O     -0.92020     2.61714     0.35645
H     -1.27170     2.62611     1.26553
O     -0.04655     0.27009    -2.54088
H     -0.95214     0.57650    -2.34214
O      0.00551    -0.92065    -1.75893
H      0.94394    -1.19622    -1.84760
O     -2.32590     1.32594    -1.52048
H     -1.87094     1.93690    -0.91530
O     -3.32687     0.80570    -0.64457
H     -3.10677    -0.14403    -0.67386
O      1.03188     0.54590     1.32763
H      0.22457     0.92412     0.94198
O      0.53336    -0.26704     2.39148
H      0.96591    -1.11861     2.16079
O      2.45211    -2.06782    -1.82322
H      2.09427    -2.86194    -1.40291
O      3.26988    -1.58667    -0.75195
H      3.19152    -0.62169    -0.87844
O      0.92298    -2.91500     0.30631
H      0.05914    -2.51563     0.53506
O      1.77896    -2.37851     1.32793
H      2.51171    -2.06764     0.76477
