 32
-1213.3104031069433
O      2.51714    -0.46169     0.96907
H      1.86609    -0.66155     1.67708
O      2.64358     0.95556     0.97488
H      1.75995     1.24118     1.25406
O     -0.30196    -1.29276    -0.20304
H      0.45886    -1.34961    -0.81397
O     -1.40606    -1.69176    -1.00654
H     -1.50663    -0.87045    -1.53403
O     -1.40387     0.76160    -1.99067
H     -0.46122     1.02292    -1.90712
O     -2.00533     1.58112    -0.97921
H     -2.73234     1.00050    -0.66785
O     -0.24221     1.64655     1.05846
H     -0.86627     1.66013     0.29836
O     -1.10592     1.79992     2.18599
H     -0.89241     0.99159     2.67186
O      1.19127     1.20855    -1.60878
H      1.87688     1.46164    -0.96950
O      1.87941     1.17108    -2.86424
H      2.13426     0.23993    -2.90028
O      2.10282    -1.53914    -1.41411
H      2.48470    -1.17343    -0.58739
O      3.25622    -1.63941    -2.24221
H      3.18117    -2.54913    -2.54096
O     -0.61219    -0.98091     2.40275
H     -0.52492    -1.10490     1.43095
O      0.73757    -1.10222     2.83038
H      0.72380    -1.92243     3.33290
O     -3.46860    -0.00396     1.66048
H     -2.95838     0.81637     1.71655
O     -3.61560    -0.16332     0.24736
H     -3.10677    -0.97172     0.08162
