 24
-909.9782201518638
O     -2.46699    -1.04934     1.16489
H     -1.84807    -0.72014     1.83891
O     -1.53166    -1.40336     0.13805
H     -1.64142    -0.64485    -0.47291
O      3.13116    -0.55900    -0.57252
H      3.84793    -0.05919    -0.97316
O      2.35685     0.48499     0.02430
H      1.87215    -0.03618     0.69871
O      0.42771    -2.39680    -2.05448
H     -0.32983    -2.43857    -1.45615
O      0.84712    -1.05405    -1.84647
H      1.72594    -1.13807    -1.42251
O     -1.70094     0.86981    -1.28195
H     -1.98760     1.46026    -0.57047
O     -0.32880     1.27277    -1.40717
H      0.08859     0.41654    -1.63044
O      0.70953    -0.99013     1.49391
H      0.04107    -1.36313     0.88478
O     -0.16492    -0.19838     2.31859
H     -0.05684     0.68419     1.91705
O     -1.27925     2.64713     1.03024
H     -1.17123     3.58771     1.20048
O      0.08162     2.20041     1.04230
H      0.19543     1.97346     0.09362
