 32
-1213.3055373158768
O      4.00781     0.09188     0.55565
H      3.74751    -0.30554    -0.28855
O      3.63693     1.45284     0.33201
H      2.78282     1.52015     0.78242
O     -0.37846    -1.04837    -1.80189
H     -1.08169    -0.41505    -1.57733
O     -0.53195    -2.11892    -0.87085
H     -1.12985    -1.74818    -0.20103
O     -1.89308     1.52104    -1.58619
H     -1.48572     2.00914    -0.83556
O     -3.23714     1.39370    -1.11766
H     -3.72411     1.88374    -1.78723
O      0.77256     2.33006     0.46772
H      0.85353     2.09399    -0.46812
O     -0.64500     2.31282     0.66809
H     -0.76635     1.43834     1.10446
O      1.99170     1.19862    -1.92978
H      2.80147     1.54727    -1.53322
O      2.15462    -0.18034    -1.54740
H      1.25146    -0.53110    -1.66623
O      1.66773    -1.27133     1.42962
H      2.57487    -0.92414     1.39974
O      1.76773    -2.42083     0.57709
H      0.98307    -2.30629     0.01195
O     -1.34963    -0.56117     2.61339
H     -2.21319    -0.86677     2.31299
O     -0.78338    -0.24376     1.33934
H      0.13659    -0.59849     1.42740
O     -3.66730    -0.73283     0.94247
H     -3.45294     0.04845     0.41178
O     -3.32041    -1.75982     0.01963
H     -4.15537    -2.22674    -0.10591
