 28
-1061.649263046339
O      0.46572    -1.06114    -3.26293
H      0.54669    -0.17839    -3.64725
O      1.56977    -1.10352    -2.35299
H      1.47022    -0.24722    -1.87918
O      0.80272     0.08287     2.84313
H      0.01520    -0.44490     2.60036
O      1.24254     0.47726     1.54272
H      1.66979    -0.34096     1.22550
O     -1.04052     2.16333     2.04292
H     -0.13109     1.91366     2.27783
O     -0.84921     2.87401     0.81987
H      0.72857     1.22383    -0.35839
O     -1.13995    -1.15459    -1.08246
H     -0.61868    -1.14658    -1.90781
O     -2.04283    -0.06119    -1.32958
H     -2.36638     0.06338    -0.41639
O     -2.24379    -0.14754     1.31477
H     -1.84685     0.67213     1.66220
O     -1.26523    -1.13090     1.67904
H     -0.98501    -1.42785     0.79801
O     -0.15878     1.82119    -1.93014
H     -0.88404     1.20830    -1.68216
O      0.98026     1.23436    -1.29902
H     -1.08658     3.77267     1.07188
O      1.29659    -2.60247     0.08229
H      1.45660    -2.45378    -0.86326
O      2.35314    -1.81920     0.63939
H      2.78770    -2.45056     1.22204
