 16
-606.6315459555631
O     -2.61948    -0.58046     0.78198
H     -2.87351    -0.77887     1.68993
O     -2.20338     0.78328     0.86604
H     -1.24574     0.68874     0.74337
O      0.58032     0.79204     0.23634
H      1.34916     1.19170    -0.19994
O      1.18455    -0.28806     0.96268
H      0.85324    -1.04225     0.45414
O      2.56378     2.67542    -0.76351
H      3.50488     2.50558    -0.87152
O      2.06010     2.10116    -1.97896
H      1.36807     2.73556    -2.18880
O     -0.72507    -2.09312    -0.33898
H     -1.44841    -1.53005     0.01164
O     -1.05080    -3.35033     0.26097
H     -1.39415    -3.82711    -0.50011
