 32
-1213.3081282150256
O      1.21158    -0.06842     1.54952
H      0.67500    -0.19184     2.34706
O      1.96694     1.11969     1.84233
H      2.66308     1.00520     1.16680
O      0.47540    -2.40539    -0.86701
H     -0.43718    -2.16325    -1.12478
O      1.18302    -1.19014    -1.07983
H      0.89852    -0.89671    -1.96769
O      0.30962    -0.13975    -3.36807
H      0.85556     0.43334    -3.91740
O     -0.80986     0.68525    -3.05198
H     -0.55920     1.02171    -2.16680
O     -0.37804     1.20876    -0.47805
H      0.09392     0.43358    -0.10861
O      0.49044     2.28905    -0.14943
H      0.80796     2.03808     0.74153
O      3.27075     0.64521    -0.44596
H      2.89456    -0.22430    -0.65372
O      2.73584     1.44387    -1.50957
H      1.99498     1.89202    -1.06516
O     -1.93247    -1.42494    -1.36798
H     -1.97316    -0.64881    -1.94648
O     -2.46998    -0.91497    -0.14166
H     -2.02287    -1.48736     0.51331
O     -0.78711    -1.44920     2.81011
H     -1.52368    -0.81826     2.71950
O     -0.98293    -2.24932     1.64279
H     -0.11870    -2.19320     1.20313
O     -2.55518     0.56890     2.46303
H     -3.06552     1.04588     3.12372
O     -1.77329     1.61700     1.89533
H     -1.90719     1.45328     0.95217
