 36
-1364.9706652267707
O      0.87743     1.89840    -0.00648
H      1.13668     1.15280    -0.58398
O      1.99435     1.90414     0.89709
H      1.81139     1.09715     1.43254
O     -1.70853     2.00527    -1.58941
H     -1.25370     1.85202    -0.73615
O     -0.63384     2.10847    -2.50474
H     -0.38489     3.03845    -2.46176
O      0.13846    -0.11739     2.81025
H     -0.21100    -1.01219     3.00806
O      1.21100    -0.43947     1.91633
H      0.72472    -0.88341     1.18833
O      4.07248     1.60826    -0.78207
H      3.40322     1.76198    -0.07758
O      4.52894     0.29318    -0.44608
H      5.46487     0.46132    -0.29537
O     -0.96276    -2.49529     2.58723
H     -0.74669    -2.74860     1.68055
O     -2.38318    -2.35202     2.55060
H     -2.49602    -1.39716     2.39272
O     -1.72432     0.82808     1.10542
H     -1.04073     0.63101     1.78164
O     -2.88040     0.18564     1.66608
H     -3.29552    -0.11024     0.84277
O      1.77911     0.05124    -1.67551
H      2.70719     0.33520    -1.77112
O      1.24726     0.15353    -3.00436
H      0.56691     0.82840    -2.84600
O     -2.30926    -0.76219    -1.49421
H     -2.31533     0.16291    -1.79264
O     -3.54645    -0.82057    -0.78293
H     -3.99562    -1.53667    -1.24162
O      0.43933    -2.47400    -1.06060
H      1.02103    -1.84253    -1.50525
O     -0.12800    -1.60639    -0.07943
H     -0.96081    -1.30043    -0.50600
