 36
-1364.9722853931598
O      0.64320     2.20588    -0.31480
H      1.14696     2.28029     0.52172
O     -0.49755     3.02432    -0.06662
H     -1.01744     2.41023     0.49623
O      0.85060    -0.65017     2.18921
H      1.59207    -0.14133     2.55183
O      1.52875    -1.67946     1.46703
H      1.29167    -1.43241     0.54853
O     -2.48982     0.30648     0.52790
H     -2.49743     0.83338    -0.29265
O     -1.52598     1.01046     1.30349
H     -0.81407     0.35548     1.39309
O     -2.01704    -2.83899     1.70046
H     -2.28103    -3.64468     2.15565
O     -0.86909    -3.28559     0.97757
H     -0.13811    -2.83344     1.43324
O     -2.42973     1.25293    -1.96341
H     -2.02553     0.55398    -2.49670
O     -2.04086     2.45085    -2.63306
H     -1.47063     2.85368    -1.96213
O      0.39060    -1.06268    -0.80277
H     -0.52526    -1.32576    -1.07284
O      0.69226    -0.03909    -1.74662
H      0.58725     0.78286    -1.21518
O      2.94485     1.22357     2.02190
H      3.12001     1.04291     1.07290
O      2.10832     2.37730     1.91387
H      2.67104     3.07860     2.26043
O      3.23335    -0.41146    -0.95437
H      2.37419    -0.40605    -1.41719
O      3.34386     0.96890    -0.60401
H      4.02126     1.29290    -1.20584
O     -2.30972    -3.09158    -1.58575
H     -1.72212    -3.44447    -0.90393
O     -2.06345    -1.69574    -1.43245
H     -2.55476    -1.46107    -0.62591
