 28
-1061.6457397439508
O      0.73533    -1.19183    -2.27460
H     -0.11062    -1.39928    -1.82138
O      0.83956     0.22120    -2.11352
H      1.06530     0.30605    -1.16010
O     -1.33695    -1.86928    -0.71083
H     -1.99605    -1.16013    -0.57869
O     -0.72056    -1.85244     0.58929
H      0.18619    -2.15491     0.38294
O     -0.53558     3.19773     1.99997
H     -0.19169     3.58743     2.80978
O     -0.15542     1.83499     2.18031
H      2.00746    -1.77155    -1.29399
O      1.38764     0.38964     0.44947
H      0.92611     0.93079     1.12308
O      2.71387     0.29175     0.96573
H      2.89083    -0.62957     0.73894
O     -2.16305     0.06459     1.72652
H     -1.62501    -0.74218     1.62976
O     -2.61318     0.18811     0.36860
H     -2.05112     0.91504     0.02355
O      1.65502    -2.97484     0.10617
H      1.74736    -3.82573    -0.33456
O      2.58658    -2.14987    -0.59244
H     -1.01972     1.37699     2.13940
O     -0.97662     1.98574    -0.66575
H     -0.84006     2.92779    -0.49430
O     -1.26665     1.93042    -2.07123
H     -0.52979     1.35730    -2.35308
