 36
-1364.981067630626
O      1.51421     1.57907     2.95183
H      0.58350     1.83168     2.88355
O      1.85345     1.35754     1.58373
H      1.75608     0.38539     1.48119
O      1.31490    -1.29092     1.37829
H      1.53265    -2.00764     0.75330
O     -0.08639    -1.51562     1.56719
H     -0.44333    -0.60290     1.62143
O      0.68719     2.94460    -1.02314
H     -0.13369     2.43125    -1.13629
O      0.59560     3.29715     0.35634
H      1.25559     2.67961     0.74346
O      1.65289    -3.09448    -0.62717
H      0.76056    -3.11808    -1.03771
O      2.41639    -2.47978    -1.66212
H      3.16020    -3.08387    -1.73355
O     -1.39558     0.81004     1.51751
H     -2.28239     0.62714     1.15634
O     -1.44884     2.19723     1.82026
H     -0.80616     2.57078     1.18631
O     -3.70238    -0.18038     0.46432
H     -4.63427    -0.38476     0.59363
O     -3.44224    -0.66738    -0.84898
H     -2.89709    -1.46350    -0.66094
O      2.70548     1.20821    -1.36960
H      2.05348     1.93319    -1.30553
O      1.84334     0.12907    -1.01108
H      2.34445    -0.66307    -1.27076
O     -1.30788     1.18478    -1.30258
H     -2.23034     0.91531    -1.41292
O     -0.63573     0.04877    -1.85721
H      0.28791     0.17783    -1.52284
O     -0.82358    -2.58146    -1.46431
H     -0.81351    -1.62830    -1.70054
O     -1.63985    -2.58122    -0.29529
H     -1.01642    -2.26568     0.40074
