 32
-1213.311044198482
O      2.56983    -0.06255     2.06064
H      3.41208     0.39550     2.15372
O      2.17510    -0.28047     3.41733
H      1.36693     0.26579     3.43249
O     -0.11591    -0.16703    -2.29525
H      0.86110    -0.32214    -2.32742
O     -0.57319    -1.45211    -1.83721
H     -1.53473    -1.32723    -1.90546
O     -0.15961     0.91404     2.72234
H      0.05430     1.13507     1.79121
O     -0.94549    -0.27172     2.59546
H     -0.33820    -0.89186     2.16173
O     -0.23571     2.42355    -0.23973
H     -1.15838     2.20610     0.01273
O      0.42187     1.21892     0.13661
H      0.02094     0.56350    -0.46349
O      2.96543     0.44013    -1.15103
H      2.19750     0.79803    -0.68382
O      2.42383    -0.70224    -1.81142
H      2.39776    -1.36594    -1.08746
O     -2.66989     1.43414     0.18158
H     -3.05684     1.37444    -0.70318
O     -2.69114     0.04965     0.55723
H     -2.19331     0.06576     1.40008
O      0.48277    -2.04666     0.55995
H      0.18069    -1.92465    -0.36248
O      1.90889    -2.07415     0.41770
H      2.17304    -1.41649     1.08965
O     -3.03661    -0.56119    -2.61731
H     -3.45441    -0.72529    -3.47150
O     -2.80547     0.85333    -2.65760
H     -1.83630     0.86259    -2.70528
