 36
-1364.9732126514975
O      0.82127     2.54641    -1.75203
H      0.22337     2.59928    -0.98156
O     -0.06939     2.13724    -2.79515
H      0.18584     1.20563    -2.90250
O     -2.61244    -3.35160    -0.53614
H     -3.37715    -3.93362    -0.56255
O     -3.00985    -2.27217    -1.37761
H     -3.23436    -1.59179    -0.70956
O      2.78969     1.09252    -0.71832
H      2.06546     1.55745    -1.19715
O      2.26387    -0.23426    -0.61510
H      2.68766    -0.54026     0.20933
O      2.00755    -1.69605     2.43379
H      2.49421    -2.30945     2.99074
O      3.04875    -0.85324     1.94387
H      2.75424     0.01564     2.32191
O     -0.86133     2.22813     0.36841
H     -1.78245     2.03633     0.10039
O     -0.51989     1.00835     1.02770
H     -0.33418     0.38182     0.30229
O     -3.19403    -0.20961     0.31100
H     -2.43802    -0.16660     0.92547
O     -3.01226     0.93191    -0.53585
H     -2.49521     0.56250    -1.27048
O      1.77726     1.35453     2.41391
H      0.92111     1.38421     1.93908
O      2.60803     2.28223     1.71809
H      2.72545     1.84427     0.85447
O     -0.74984    -0.51702    -1.71930
H     -1.07655    -1.42924    -1.79176
O      0.41611    -0.50919    -2.53772
H      1.11457    -0.54403    -1.85510
O     -1.25821    -1.96868     1.38458
H     -1.66604    -2.61771     0.79107
O     -0.04674    -1.72531     0.66872
H      0.61334    -1.69450     1.38327
