 32
-1213.3082310395669
O      3.06308    -2.38170    -1.22703
H      3.39174    -3.21280    -0.87583
O      1.76066    -2.35322    -0.64208
H      1.83421    -1.58230    -0.03426
O     -3.31879    -0.37970     1.80135
H     -3.95356    -0.61417     2.48315
O     -2.30553     0.27248     2.57083
H     -2.14691     1.06963     2.02271
O     -0.24170    -1.55043    -2.22901
H      0.57793    -1.92980    -1.84873
O     -0.77918    -2.65286    -2.95337
H     -0.92068    -2.23919    -3.80785
O     -1.45853     2.22113     0.95621
H     -1.12263     1.77937     0.14559
O     -0.25079     2.46399     1.67569
H      0.08019     1.55103     1.82776
O      1.77473    -0.06113     0.72801
H      1.90789     0.87660     0.48661
O      0.69995    -0.01524     1.66946
H      0.05219    -0.60995     1.23100
O     -0.37715     0.94562    -1.10313
H     -0.38461     0.04092    -1.48487
O     -0.03990     1.73564    -2.24608
H      0.72589     2.20926    -1.89911
O      2.41655     2.49526     0.16192
H      2.95822     3.05138     0.72976
O      1.38257     3.38013    -0.26567
H      0.69962     3.20432     0.41839
O     -1.11626    -2.83774     0.29289
H     -1.15964    -2.84305    -0.67035
O     -1.20696    -1.42440     0.50363
H     -2.06128    -1.30148     0.96806
