 32
-1213.3055987607065
O     -1.92698     2.02160     0.61356
H     -2.19612     1.45451     1.36136
O     -0.86895     1.22298     0.08146
H     -0.56806     1.73043    -0.69007
O      2.01792    -1.49413    -1.05096
H      1.84393    -0.69470    -1.61137
O      2.02334    -2.53737    -2.02463
H      2.96499    -2.72652    -2.07543
O     -1.80745     0.77688    -3.13042
H     -2.39415     0.61045    -3.87498
O     -0.87740    -0.29650    -3.26620
H     -1.06194    -0.80287    -2.44835
O      1.59160     0.64442    -2.56942
H      0.76059     0.44411    -3.04065
O      1.20108     1.76797    -1.77315
H      1.70862     1.59897    -0.95878
O      1.95939     1.16851     0.72683
H      1.06440     1.03727     1.08832
O      2.69752     0.10664     1.32238
H      2.55947    -0.60778     0.68197
O     -0.56054    -1.92946     0.21752
H      0.23856    -2.16105    -0.28498
O     -1.34091    -1.22315    -0.75833
H     -1.29564    -0.30619    -0.40888
O      0.91792    -1.09774     3.05135
H      1.70872    -0.55578     2.92283
O     -0.01323    -0.32018     2.29476
H     -0.31171    -0.96742     1.62163
O     -2.89412     0.49009     2.62665
H     -3.74693     0.66636     3.03284
O     -1.99777     0.82503     3.70101
H     -1.18863     0.42530     3.32633
