 40
-1516.641881835187
O     -1.33359    -0.66312    -2.79867
H     -1.33853    -0.59210    -1.81828
O     -0.45675    -1.76663    -3.03825
H      0.36455    -1.30964    -3.27965
O      2.31242    -0.63663     2.89957
H      2.08635     0.25017     2.56139
O      2.95689    -1.19095     1.74384
H      3.83983    -1.37235     2.08491
O     -0.97814     1.60262     3.15917
H     -0.99278     0.65526     3.39703
O     -2.33223     1.80060     2.75450
H     -2.21434     2.44666     2.04481
O     -1.97810    -1.49686     0.61046
H     -1.34421    -2.20708     0.41288
O     -1.43819    -0.44961    -0.18102
H     -0.63624    -0.14350     0.31428
O     -1.10196    -1.10191     3.25227
H     -1.72176    -1.28174     2.52753
O     -0.08601    -2.08290     3.00790
H      0.72060    -1.54595     3.07544
O      0.85368     0.41973     0.75873
H      1.26468     0.69122    -0.09603
O      1.25236     1.45967     1.64863
H      0.39842     1.66846     2.07874
O      0.02418     2.20598    -3.31853
H      0.16665     3.02288    -3.80455
O     -0.48492     1.33870    -4.33718
H     -0.90295     0.65248    -3.77605
O     -0.74170     2.47853    -0.45953
H     -0.75933     2.54417    -1.42499
O     -2.13040     2.45284    -0.12809
H     -2.30973     1.50207    -0.08972
O      1.50774    -2.30630    -0.55292
H      1.61694    -2.10436     0.39068
O      0.16101    -2.77057    -0.62117
H     -0.07702    -2.51453    -1.53535
O      1.63366     0.80432    -1.71041
H      1.07986     1.26978    -2.36682
O      1.90525    -0.42698    -2.38623
H      1.85668    -1.06786    -1.64833
