 36
-1364.9788155967726
O      1.55284     3.99667     0.62018
H      0.89314     3.64832    -0.01927
O      2.59157     3.03262     0.45503
H      3.26934     3.53375    -0.01040
O     -3.13267    -2.77403     0.25725
H     -4.06186    -2.96228     0.09748
O     -3.16686    -1.43491     0.72862
H     -2.96090    -0.91611    -0.08937
O      2.14188     0.38953     0.07557
H      2.23401     1.33787     0.28156
O      1.24761     0.44339    -1.04163
H      1.52423    -0.36662    -1.52959
O     -2.47981     0.17439    -1.22738
H     -2.12353     1.01093    -0.85551
O     -1.46123    -0.17148    -2.17195
H     -1.26578    -1.08631    -1.90471
O      2.08785    -1.93082    -1.84970
H      1.38708    -2.57486    -1.60704
O      3.17627    -2.34868    -1.01875
H      3.22001    -1.60517    -0.40309
O     -0.13072     2.49731     2.38101
H      0.53990     3.17527     2.21540
O      0.71405     1.35336     2.57073
H      0.05328     0.64326     2.64108
O     -0.20482     2.68109    -0.87184
H      0.20596     1.80993    -1.04792
O     -1.30984     2.30892    -0.04096
H     -0.92999     2.37751     0.86142
O      0.13333    -1.41601     1.29774
H      0.45000    -0.68102     0.73417
O     -0.86414    -0.79413     2.11346
H     -1.68979    -1.14736     1.72546
O     -1.03050    -2.69738    -1.34549
H     -1.77594    -2.90756    -0.74964
O      0.07804    -3.23979    -0.63495
H      0.10224    -2.67716     0.16773
