 32
-1213.3101896670091
O      3.58636     0.41124     0.69568
H      4.45382     0.79911     0.55184
O      2.73875     1.47813     0.27528
H      1.90519     1.23062     0.73978
O     -1.96397    -1.14855     0.40924
H     -1.46248    -1.59859     1.12141
O     -1.15903    -1.43280    -0.74279
H     -1.15531    -0.57338    -1.22061
O     -0.96865     0.97498    -1.91277
H     -0.10100     1.43152    -2.05093
O     -1.39168     1.52656    -0.65872
H     -2.36828     1.46031    -0.74554
O      0.38122     0.68163     1.14053
H     -0.38528     0.97606     0.59314
O      0.02155     1.04909     2.47309
H      0.13835     0.18909     2.89825
O      1.49029     1.94205    -2.12416
H      2.05155     1.88332    -1.32887
O      2.01136     0.90866    -2.95549
H      1.81616     0.11382    -2.43565
O      1.31564    -1.97753     0.05723
H      0.41441    -1.86829    -0.31710
O      2.08263    -1.18769    -0.85744
H      2.68804    -0.71361    -0.25767
O     -0.65782    -2.37467     2.39922
H     -0.53834    -3.31820     2.55014
O      0.63337    -1.83134     2.65824
H      1.00944    -1.81891     1.75292
O     -4.27420    -0.23108    -0.64573
H     -3.45736    -0.54093    -0.20836
O     -4.03125     1.17792    -0.66921
H     -4.67732     1.51198    -0.04027
