 36
-1364.9762771021258
O     -0.09585     3.95528     0.19842
H      0.12176     3.79095     1.12649
O     -0.07362     2.60128    -0.27489
H      0.58264     2.61251    -0.99156
O     -1.06342     0.38557     1.52997
H     -1.78497     0.58444     0.90772
O     -1.70692    -0.35709     2.57094
H     -1.07516    -1.09688     2.62774
O     -0.03994    -2.69580     0.83571
H     -0.65403    -2.03874     0.47250
O      0.34018    -2.08378     2.06912
H      1.07675    -1.50822     1.78141
O      1.75637     0.46098     0.31803
H      1.70934     1.05635     1.10036
O      2.32663    -0.71839     0.89070
H      2.50577    -1.23587     0.07776
O      0.23174     2.41138     2.65788
H     -0.27000     1.65001     2.28854
O      1.57891     1.94789     2.53921
H      1.84477     1.80843     3.45411
O     -2.43944     1.53507    -0.77356
H     -1.62029     2.06630    -0.67875
O     -2.20711     0.89932    -2.03776
H     -2.12441    -0.03172    -1.76439
O      0.51464    -0.04800    -1.95867
H      0.84353     0.21753    -1.07127
O      0.41401     1.20083    -2.63711
H     -0.55619     1.27522    -2.69496
O     -1.52099    -2.41173    -2.16396
H     -0.58700    -2.54889    -1.94281
O     -1.93684    -1.60936    -1.06311
H     -2.75266    -2.04056    -0.78598
O      2.40633    -2.08997    -1.40925
H      2.05708    -1.42500    -2.02175
O      1.35754    -3.06210    -1.41033
H      1.04808    -3.02690    -0.48410
