 32
-1213.30325658082
O     -0.08542    -1.71269     1.20755
H     -0.23534    -1.87231     0.26099
O     -1.41402    -1.79244     1.74043
H     -1.47500    -0.95992     2.22973
O      1.03757    -2.08000    -2.75727
H      0.08517    -2.07984    -2.57688
O      1.48649    -1.67290    -1.46508
H      2.36472    -2.06454    -1.41276
O     -2.37086    -2.68867    -1.13945
H     -2.50832    -2.55539    -0.19024
O     -1.45890    -1.62505    -1.43758
H     -1.90978    -0.83482    -1.04863
O     -2.56127     0.34630    -0.11789
H     -2.34628     0.85104     0.69303
O     -2.58741     1.35778    -1.12261
H     -1.64224     1.41663    -1.35408
O      3.83222     1.00584     0.08078
H      4.72146     1.31293     0.28206
O      3.32148     2.12958    -0.65607
H      2.62912     1.69171    -1.19226
O      0.11033     1.41251    -1.23941
H      0.38400     1.30099    -0.30304
O      1.26688     0.94154    -1.93863
H      1.21183    -0.03030    -1.81807
O     -2.02415     1.69259     2.15068
H     -2.61551     2.20654     2.71004
O     -1.26852     0.93925     3.10364
H     -0.36861     1.21082     2.85579
O      1.92843     0.85296     2.03387
H      2.59754     0.93415     1.33196
O      0.74425     0.78598     1.24130
H      0.56028    -0.18597     1.23718
