 40
-1516.6463511748052
O      1.05827    -1.46098    -2.24529
H      1.24798    -1.97671    -1.43173
O     -0.31193    -1.79128    -2.52072
H     -0.75115    -1.52737    -1.68592
O      0.90164    -2.29464     3.56034
H      1.15710    -2.40157     4.48224
O      1.66041    -1.14630     3.18313
H      2.19957    -1.50882     2.44969
O     -0.34625     1.07029     2.58922
H      0.45876     0.53095     2.54881
O     -0.06110     2.09210     1.63667
H     -0.77952     2.01349     0.99315
O     -2.19301    -0.41106     0.38197
H     -2.10601    -0.86432     1.25462
O     -0.94387    -0.79825    -0.18908
H     -0.49501     0.05988    -0.32223
O     -2.09139    -0.77087     3.53241
H     -1.54067    -0.00139     3.30534
O     -1.58478    -1.73016     2.61133
H     -0.75095    -2.00495     3.03672
O      2.29867     1.57662     0.53530
H      1.53420     2.01736     0.94621
O      1.59495     0.52688    -0.13383
H      1.62133     0.83484    -1.07805
O     -0.51690     0.39571    -3.97249
H     -0.42948    -0.52594    -3.62788
O     -1.77683     0.76722    -3.41970
H     -2.31124     0.89935    -4.20714
O     -1.29283     1.84884    -1.01858
H     -1.54630     1.50107    -1.89609
O     -2.54271     2.12386    -0.40196
H     -2.75578     1.23896    -0.06125
O      2.61127    -1.72762     0.66958
H      2.44733    -0.83746     0.27526
O      1.46457    -2.44598     0.21517
H      0.72882    -1.92809     0.58198
O      1.50745     1.60449    -2.54289
H      0.92229     1.28807    -3.25749
O      1.10103     2.96485    -2.36851
H      0.49701     2.88091    -1.61546
