 24
-909.9785823162152
O     -0.25898     1.26720     1.47709
H     -0.99778     0.82618     1.00413
O     -0.15920     0.44063     2.63930
H     -0.04451    -0.43532     2.24424
O      1.17785    -0.29145    -2.07822
H      1.87202    -0.27049    -1.40261
O      0.31496    -1.30387    -1.54904
H     -0.55684    -0.87271    -1.65092
O      2.44220    -0.69055     1.17649
H      3.21579    -0.52491     1.72641
O      2.37633     0.50662     0.39993
H      1.60754     0.95763     0.79058
O     -1.91074     0.16517    -1.28917
H     -1.59338     1.09482    -1.30940
O     -2.13187    -0.01274     0.11789
H     -2.06485    -0.98349     0.21143
O     -0.29717    -2.09350     1.01813
H      0.15321    -1.93653     0.16715
O     -1.55231    -2.58222     0.54797
H     -1.75803    -3.25642     1.20318
O      0.67853     2.35350    -1.52952
H      0.68384     1.43657    -1.85065
O     -0.68667     2.52747    -1.14356
H     -0.58993     2.64109    -0.18807
