 40
-1516.6463840654287
O      0.74408     2.25304     1.89128
H     -0.14550     2.64400     1.73589
O      0.52760     1.42876     3.03464
H      0.07147     0.67376     2.63444
O      2.07561    -1.59715    -1.50244
H      1.63959    -2.24885    -0.91404
O      1.05771    -1.32192    -2.47147
H      1.25027    -0.39491    -2.65807
O     -2.27849     1.59832    -2.05300
H     -2.48307     2.35838    -1.48367
O     -3.54768     0.94787    -2.16660
H     -3.23876     0.03504    -2.23127
O     -1.92156     0.05139     0.48404
H     -1.90227    -0.42639    -0.38456
O     -0.56230    -0.18126     0.87250
H     -0.09157     0.30168     0.14995
O     -1.71175     3.57618    -0.11849
H     -0.77654     3.47270    -0.35029
O     -1.77437     2.95290     1.16678
H     -2.14905     2.08038     0.96689
O      0.15995     0.94835    -1.34568
H     -0.72011     1.15861    -1.72871
O      0.75147     2.23904    -1.20503
H      1.60326     1.93306    -0.82090
O      2.50279     0.44562     1.07897
H      1.94777     1.21169     1.34918
O      2.71169     0.71476    -0.30889
H      2.61542    -0.17187    -0.70991
O      0.89930    -3.15193     0.32551
H      1.33619    -3.21374     1.19473
O     -0.44296    -2.79915     0.67874
H     -0.37700    -1.83543     0.87073
O      1.63660    -1.59182     2.63996
H      2.09237    -0.93158     2.08225
O      2.48927    -2.72500     2.48015
H      2.51751    -3.05859     3.38095
O     -1.92772    -2.54073    -1.57201
H     -1.44403    -2.75494    -0.74472
O     -1.51918    -1.19110    -1.77846
H     -0.60619    -1.30330    -2.12490
