 36
-1364.9708351922832
O      1.17197     1.85156     1.26259
H      1.71683     1.21747     1.76065
O      0.69237     2.73436     2.27726
H     -0.24942     2.51280     2.28285
O     -0.20990    -1.50976    -1.31249
H     -0.90254    -1.10107    -1.86520
O     -0.95951    -2.28186    -0.37835
H     -1.14575    -1.63670     0.34354
O     -1.66274    -0.80769     1.72520
H     -2.32711    -0.10321     1.67786
O     -0.64615    -0.19184     2.52692
H      0.15353    -0.49213     2.05794
O      1.59946    -0.97262     1.29446
H      1.73516    -1.93909     1.40534
O      2.90882    -0.43705     1.15866
H      2.90826    -0.22305     0.21311
O     -2.38238     2.57808     2.02493
H     -2.80398     3.42745     1.86227
O     -2.95625     1.75950     1.00498
H     -2.20901     1.66824     0.37610
O     -0.76619     1.23244    -0.44483
H     -0.00393     1.36082     0.17583
O     -0.45635     2.14775    -1.49654
H      0.42482     1.82066    -1.75651
O      2.14424    -0.31037    -1.72062
H      1.31488    -0.78489    -1.49376
O      1.67263     0.78066    -2.51486
H      1.19992     0.33523    -3.23136
O     -1.70149     0.13324    -2.91310
H     -1.47648     1.00231    -2.53310
O     -0.96046     0.12751    -4.13179
H     -1.66840     0.12115    -4.78260
O      1.34729    -3.62694     1.54553
H      1.89916    -4.39182     1.72636
O      1.29423    -3.65417     0.11410
H      0.41551    -3.25634    -0.04687
