 40
-1516.6490504476394
O      2.20728     0.78221    -1.69848
H      1.36064     1.25235    -1.84417
O      2.57884     1.29900    -0.41651
H      2.62705     0.48072     0.11761
O      2.50920    -2.55616    -1.16180
H      2.02342    -3.40009    -1.09095
O      1.47139    -1.75506    -1.72945
H      1.88536    -0.85931    -1.77139
O     -3.39865     2.63387     0.70282
H     -2.56080     2.99994     0.38856
O     -2.94405     1.63965     1.62692
H     -3.07015     0.82245     1.10760
O      0.23513     3.79072     0.18601
H      0.15948     3.38393     1.07599
O      1.62715     4.04304     0.04882
H      1.98004     3.14302     0.00789
O     -3.13911    -0.50328    -0.05356
H     -2.33211    -1.06370    -0.13220
O     -3.22110     0.00328    -1.38604
H     -4.07124     0.45324    -1.36150
O      2.62148    -1.00535     0.97068
H      2.62751    -1.70973     0.28695
O      1.40400    -1.26393     1.66724
H      1.06395    -0.35621     1.80061
O      0.26762     1.13212     1.59058
H     -0.18028     1.14065     0.71598
O     -0.38073     2.20525     2.26577
H     -1.32388     1.94750     2.19179
O      0.51953    -4.87064     0.33104
H     -0.16040    -4.19170     0.48382
O      0.82204    -4.59460    -1.03789
H      0.71798    -5.45598    -1.45194
O     -0.82203    -1.68740    -0.34835
H      0.01219    -1.87418    -0.84047
O     -0.76938    -2.52252     0.80452
H      0.00761    -2.13473     1.25579
O     -0.21941     2.01059    -1.71573
H     -0.04389     2.81808    -1.17931
O     -0.96561     1.28443    -0.72170
H     -1.69138     0.85978    -1.22858
