 32
-1213.3044822802233
O      1.90663    -0.17891     1.41647
H      2.76666    -0.30120     1.82438
O      1.31636     0.80038     2.26630
H      1.34751     1.61247     1.71153
O      1.32121    -1.65935    -2.66206
H      0.39576    -1.93940    -2.63411
O      1.65347    -1.65876    -1.26345
H      1.86392    -0.70864    -1.13347
O     -1.52578    -2.11760    -2.24659
H     -1.42115    -2.00040    -1.27791
O     -2.03977    -0.83636    -2.62452
H     -2.98348    -1.00608    -2.71423
O     -1.65157     1.25184     0.04822
H     -1.39630     0.47648     0.58322
O     -0.87224     1.08438    -1.13637
H     -1.34818     0.39553    -1.64801
O      1.79436     1.00231    -1.35782
H      0.84370     1.18915    -1.19368
O      1.93033     1.36017    -2.72850
H      1.89024     0.48685    -3.14376
O     -1.22555     0.11766     2.76515
H     -0.27313     0.33428     2.71287
O     -1.18218    -1.08456     3.53966
H     -2.02035    -1.01619     4.00404
O     -1.21092    -2.66907     1.11273
H     -1.22033    -2.19450     1.95719
O     -0.78576    -1.61082     0.25026
H      0.16999    -1.76348     0.12226
O      0.99986     2.99930     0.84473
H      1.27588     3.91684     0.75909
O     -0.27682     3.11254     1.46758
H     -0.80745     2.54674     0.87722
