 24
-909.9729116419802
O     -3.28599     1.29839     1.10216
H     -2.99354     2.06052     0.57940
O     -2.94719     0.26222     0.17442
H     -3.76734    -0.23595     0.10206
O      2.33432    -1.59092    -0.79416
H      1.94239    -0.72167    -1.02441
O      2.87284    -1.99216    -2.05003
H      3.81281    -2.03017    -1.84848
O      1.02967     0.73177    -1.01344
H      0.17830     0.83203    -1.47682
O      0.70389     1.37901     0.23557
H      1.22640     0.81975     0.85128
O     -1.51330     2.61890    -0.64164
H     -0.69338     2.42190    -0.15373
O     -1.45147     1.57143    -1.62972
H     -2.03638     0.92535    -1.20492
O      2.25406    -0.21232     1.69208
H      2.76088    -0.73844     1.05768
O      1.50848    -1.23586     2.35796
H      0.67242    -1.22757     1.85292
O     -0.77738    -1.38245     0.99352
H     -1.36223    -0.62417     0.87875
O     -0.62804    -1.82468    -0.35918
H      0.30785    -2.06830    -0.36876
