 40
-1516.6363945767084
O      0.93311    -0.97759    -2.37977
H      1.61155    -1.21447    -1.69894
O      1.34358     0.31729    -2.79549
H      1.55784     0.73091    -1.93178
O     -0.61654    -1.54473     0.04419
H     -0.75433    -2.27531    -0.59638
O     -1.77627    -0.73567    -0.14288
H     -1.55384    -0.20061    -0.94234
O      0.49306     1.94913     3.92905
H      0.95293     2.67407     4.36186
O      1.57640     1.28416     3.28156
H      1.17395     0.40985     3.09605
O     -1.25576     0.92635    -2.18017
H     -0.43169     0.71523    -2.65917
O     -0.91469     2.20172    -1.61849
H     -1.74930     2.45202    -1.17899
O     -0.65031     1.99438     1.46975
H     -0.30635     2.05015     2.37991
O     -1.84432     1.23607     1.69150
H     -1.71983     0.45284     1.11136
O      1.35247     1.05229    -0.27678
H      0.58590     1.65632    -0.20797
O      2.40587     1.68867     0.42098
H      2.20227     1.44102     1.33322
O     -3.03755     2.86289    -0.02751
H     -2.76667     2.34459     0.76164
O     -4.25790     2.22998    -0.39984
H     -4.81991     2.99885    -0.52069
O     -1.00338    -3.42650    -1.84698
H     -1.78030    -3.46801    -2.41575
O      0.08135    -3.46492    -2.77236
H      0.29819    -2.51409    -2.83051
O      0.66045    -1.01172     2.32852
H      0.16141    -1.12744     1.48569
O      1.98667    -1.36190     1.94525
H      2.07923    -2.23323     2.34481
O      1.93133    -3.24715    -0.45464
H      1.73916    -3.52234    -1.36211
O      2.62198    -2.00981    -0.67120
H      2.50470    -1.57218     0.18727
