 40
-1516.6444263199699
O      2.16430     3.18034     0.67015
H      2.26981     2.92792    -0.26345
O      3.18800     2.40074     1.27734
H      3.61097     3.05131     1.84277
O     -0.42614    -1.69404    -3.09191
H     -0.83244    -2.13066    -2.31780
O     -0.96251    -0.37874    -2.93856
H     -0.14499     0.16023    -2.91172
O     -0.78282     2.69662    -0.48251
H     -1.42438     1.95735    -0.49498
O     -0.52668     2.85864     0.91393
H      0.44089     2.98144     0.89992
O     -1.66844    -2.31607     3.38557
H     -2.07039    -2.97084     3.96379
O     -2.14125    -2.73738     2.10701
H     -1.32066    -2.69024     1.58091
O     -2.79119    -0.51991    -0.06177
H     -2.59030    -0.18157     0.83672
O     -2.40699     0.58681    -0.87580
H     -2.00966     0.14420    -1.65833
O      2.22477    -0.13165     1.16758
H      2.71457     0.68901     1.32565
O      1.08654     0.43959     0.51674
H      0.35349     0.10856     1.06609
O      1.45877     2.20631    -1.87179
H      0.56653     2.33184    -1.49890
O      1.31656     0.96755    -2.56515
H      1.92101     0.37483    -2.07557
O     -2.09027     0.14816     2.42483
H     -1.98183    -0.67848     2.93914
O     -0.79604     0.73472     2.57953
H     -0.90061     1.57572     2.09465
O      2.62466    -1.05392    -1.28475
H      2.53490    -0.90614    -0.32340
O      1.84234    -2.23852    -1.47054
H      1.39477    -2.05117    -2.31087
O     -0.25866    -2.33488     0.23527
H      0.54019    -2.31082    -0.33845
O     -1.28917    -2.59776    -0.71954
H     -1.94265    -1.91113    -0.45691
