 20
-758.3061576848092
O     -1.65835    -1.33989    -0.19885
H     -1.73790    -0.71780     0.54704
O     -0.60467    -2.19875     0.25133
H      0.17358    -1.64222     0.10033
O      2.37782     1.77781     1.59030
H      3.27684     1.90232     1.90706
O      1.81131     0.99046     2.63974
H      0.88672     1.25661     2.54436
O      1.30687     0.07882    -0.17292
H      1.78009     0.71729     0.39448
O      0.33719     0.94350    -0.78695
H      0.09325     0.42490    -1.57324
O      0.11819    -1.64911    -3.45082
H     -0.35673    -1.72934    -4.28214
O     -0.71560    -0.72798    -2.75104
H     -1.12523    -1.28999    -2.06859
O     -0.80972     1.51341     1.53056
H     -0.50487     1.29846     0.62076
O     -1.87163     0.57920     1.71381
H     -2.64027     1.15624     1.70458
