 32
-1213.3125384985185
O      1.58940    -2.39142    -0.25884
H      2.30157    -1.98643     0.27699
O      0.45886    -2.32366     0.60624
H      0.52030    -1.43105     0.97950
O      0.96691    -1.95125    -2.88163
H      1.19044    -2.19967    -1.96791
O      0.13402    -0.81027    -2.66948
H     -0.64838    -1.19936    -2.22098
O     -1.69176    -1.74053    -0.93011
H     -1.04176    -2.21939    -0.38340
O     -1.96954    -0.62115    -0.08394
H     -1.68343     0.13302    -0.64991
O     -1.50454     1.49999    -1.56491
H     -0.61775     1.77535    -1.84325
O     -1.76887     2.43938    -0.51499
H     -2.70597     2.27230    -0.35477
O      1.82403     0.44461    -1.06565
H      1.21528     0.00359    -1.71804
O      1.25630     1.74987    -0.91915
H      0.91714     1.71044    -0.01243
O      3.41284    -1.14428     1.25445
H      4.36999    -1.19445     1.17275
O      3.17698     0.26158     1.20096
H      2.78070     0.34480     0.30349
O      0.09615     1.51079     1.86435
H     -0.86086     1.39391     1.96163
O      0.55913     0.21512     2.25416
H      1.48935     0.40406     2.43972
O     -2.82528     1.51038     2.29713
H     -3.40938     1.51178     3.06423
O     -3.72594     1.24019     1.22486
H     -3.37151     0.39220     0.91289
