 28
-1061.6381744595542
O      0.31064    -1.01160     1.45445
H      0.60281    -0.14648     1.10836
O      0.66880    -1.86480     0.36532
H     -0.13296    -1.81299    -0.20135
O      3.21705    -1.27773     1.08717
H      2.37931    -1.65851     0.77192
O      3.79606    -0.87179    -0.16018
H      4.73465    -0.95368     0.02960
O     -3.06420    -0.80936     1.26243
H     -3.51506    -1.48583     1.77656
O     -2.16263    -0.24684     2.21308
H     -2.27944    -1.16066    -0.24485
O     -1.75372     2.34445     0.97462
H     -2.19227     1.72824     1.57658
O     -0.60439     1.57718     0.64138
H     -0.80135     1.30645    -0.27572
O      0.35657     0.70269    -2.55732
H      0.94848     0.80431    -1.78123
O     -0.90259     1.05151    -1.95382
H     -1.19437     1.78498    -2.50466
O     -2.30759    -1.35085    -2.14485
H     -1.70054    -0.69792    -2.51011
O     -1.67341    -1.57487    -0.88793
H     -1.30517    -0.62773     1.93138
O      2.13898     2.22519     0.08048
H      1.30620     2.43069     0.52704
O      1.84148     0.88694    -0.33152
H      2.69785     0.41908    -0.24908
