 24
-909.9718060025405
O     -1.74822    -1.48219    -0.15786
H     -1.57061    -0.75380     0.45699
O     -0.85926    -1.15619    -1.22305
H     -0.07458    -1.70487    -1.01638
O      1.68110     1.92151    -1.42426
H      0.93604     1.94829    -2.03522
O      1.41247     0.70499    -0.73207
H      0.74938     0.99085    -0.06814
O      1.37873    -2.50002    -0.57603
H      2.08145    -2.84336    -1.13551
O      2.08768    -1.66249     0.33720
H      1.94200    -0.78216    -0.06971
O     -1.35381     2.06968     1.29391
H     -1.58250     2.18239     0.36039
O     -0.45363     0.96474     1.13735
H     -0.26444     0.66178     2.04440
O      0.73084    -0.33983     3.20561
H      0.51392    -0.57363     4.11213
O      0.19757    -1.45792     2.49266
H      0.92444    -1.63713     1.87720
O     -1.79849     1.32545    -1.52987
H     -1.46439     0.39909    -1.56847
O     -1.21152     1.89274    -2.70431
H     -1.98857     2.07616    -3.23934
