 36
-1364.9755472242784
O     -2.40573     0.84364    -1.04072
H     -2.24233     1.35669    -0.23412
O     -1.08433     0.77578    -1.59355
H     -0.95181    -0.17774    -1.71590
O     -2.85235    -2.34984    -0.63025
H     -2.11414    -2.66596    -1.16782
O     -3.58985    -1.52108    -1.53281
H     -3.22687    -0.64147    -1.31491
O      1.67108    -1.65335     3.08816
H      1.53571    -0.87030     2.52198
O      0.37378    -1.75010     3.69111
H      0.55584    -2.30603     4.45503
O      2.74476    -0.12752    -1.57485
H      2.28383    -0.77767    -1.01411
O      1.79161    -0.01433    -2.64809
H      1.44867     0.88095    -2.46116
O     -1.72550    -0.96981     1.29966
H     -2.34539    -1.41243     0.68021
O     -0.68136    -1.95420     1.28637
H     -0.44191    -2.00358     2.23514
O      1.45108     2.37050    -1.52038
H      0.69843     2.72718    -1.01145
O      2.47556     2.29294    -0.51767
H      2.88369     1.44842    -0.79811
O     -0.53068     3.47339    -0.07852
H     -0.51439     4.34230     0.33796
O     -1.18703     2.66639     0.90035
H     -0.41163     2.26898     1.35769
O      0.11285    -1.96991    -1.89719
H      0.67883    -1.47793    -2.52040
O      1.00271    -1.97374    -0.76672
H      0.36901    -2.01376    -0.01545
O      1.13254     1.57828     1.70660
H      1.70651     1.94437     0.99955
O      1.08162     0.21825     1.27879
H      0.13616     0.07126     1.07272
