 36
-1364.9816005322252
O     -1.50405     2.54623    -0.42886
H     -2.01102     1.71823    -0.43656
O     -1.43437     2.85374     0.97241
H     -0.63262     3.40335     0.96567
O     -2.09021    -1.08884    -1.77564
H     -1.30363    -0.57437    -2.06786
O     -2.60578    -0.23440    -0.74498
H     -2.43137    -0.75809     0.05796
O      1.46333    -1.64864     0.73240
H      1.11628    -2.26603     0.05215
O      1.48340    -2.43738     1.91424
H      0.52988    -2.53426     2.09284
O      1.21739    -0.44431    -2.01243
H      1.94734     0.20405    -2.00055
O      0.08542     0.38818    -1.78177
H      0.07575     0.47428    -0.80454
O      1.13584     3.64394     0.42122
H      1.59056     2.85580     0.76263
O      1.22860     3.42500    -0.99420
H      0.34328     3.08184    -1.19849
O     -0.05915     0.46683     0.87167
H      0.53886    -0.30731     0.98216
O     -0.48861     0.69983     2.21640
H     -1.00200     1.50641     2.03393
O      0.21641    -3.21126    -1.07962
H      0.32956    -3.84907    -1.79297
O     -1.15802    -3.35671    -0.73425
H     -1.56267    -2.58789    -1.20549
O      2.99570     1.38360    -1.15395
H      2.50261     2.21737    -1.27519
O      2.71771     1.16483     0.23901
H      2.69271     0.19728     0.29226
O     -1.22869    -2.62010     1.89335
H     -1.31261    -3.07778     1.03866
O     -1.98752    -1.43796     1.60920
H     -1.46832    -0.73680     2.04700
