 36
-1364.97823245888
O      0.72063     0.85778    -1.10492
H      0.54226     0.28711    -0.33013
O      1.89164     1.55060    -0.69289
H      2.54404     0.82215    -0.65604
O     -1.85495    -0.84850     2.77128
H     -2.37398    -1.58923     3.09806
O     -2.15972    -0.87067     1.37883
H     -1.36352    -1.31480     1.00860
O      2.54765    -2.09166    -0.47232
H      2.52024    -1.87659    -1.43643
O      3.05469    -0.84589     0.04082
H      2.48773    -0.72034     0.82631
O      1.90379    -0.91862    -2.71182
H      1.29334    -0.21374    -2.42271
O      1.05973    -1.97343    -3.16298
H      0.46626    -2.11091    -2.40258
O     -2.23207    -0.06220    -1.58632
H     -2.25554     0.77936    -1.06730
O     -1.94026     0.42384    -2.89170
H     -2.75485     0.20870    -3.35359
O     -2.22295     2.12312    -0.07938
H     -1.38409     2.62457    -0.05135
O     -2.35825     1.79638     1.31309
H     -2.38656     0.81965     1.29266
O      0.13799     3.02456     0.73309
H      0.88119     2.56032     0.30780
O      0.12648     2.46072     2.05774
H     -0.82775     2.28673     2.14676
O      1.21586     0.06086     1.71886
H      0.97917     0.97343     2.00234
O      0.90296    -0.74761     2.85623
H     -0.06594    -0.71445     2.83133
O     -0.68125    -2.16776    -1.08660
H     -1.21550    -1.36250    -1.28196
O     -0.01005    -1.75461     0.10797
H      0.92800    -2.04193    -0.05126
