 40
-1516.6406100889112
O      1.38454     1.97717     1.43100
H      0.72116     1.68130     0.75572
O      2.59729     1.94022     0.67826
H      3.19764     2.37590     1.28972
O     -1.45064     2.30732    -0.18313
H     -1.50011     2.51487     0.77278
O     -0.54530     1.20539    -0.17694
H     -1.07977     0.49684     0.24933
O     -1.42354     2.55272     2.55739
H     -1.50092     1.61209     2.82427
O     -2.71862     3.05352     2.88885
H     -2.49177     3.73132     3.53184
O      1.44324     0.02682     3.27649
H      1.35645     0.80957     2.70375
O      0.99005    -0.99729     2.38695
H      1.69975    -1.02977     1.71664
O     -1.88252    -0.46212     1.43390
H     -1.68169    -1.40887     1.33826
O     -1.50061    -0.17693     2.78534
H     -0.58798    -0.54255     2.81983
O     -0.15340    -3.35436    -0.57365
H      0.48578    -2.75526    -0.16291
O     -1.38162    -2.79315    -0.11555
H     -1.71273    -2.33659    -0.91429
O      2.24847     0.82852    -2.42944
H      2.64364     1.67064    -2.68545
O      0.90100     0.99652    -2.86536
H      0.42248     1.06315    -2.02133
O     -2.17095    -1.42378    -2.32303
H     -1.52447    -1.63942    -3.02110
O     -2.01699     0.00054    -2.31460
H     -2.76355     0.28341    -1.77676
O      2.73002    -0.76216     0.29671
H      2.74573     0.21023     0.25683
O      1.54862    -1.04894    -0.43953
H      1.85339    -1.13374    -1.36262
O      1.09199    -2.31773    -2.99575
H      0.55024    -2.89990    -2.44435
O      0.09644    -1.67272    -3.79434
H      0.39509    -0.75286    -3.74920
