 24
-909.971400841508
O     -0.23191    -3.14338     0.17799
H     -0.34181    -2.46552    -0.51005
O      0.63019    -2.42221     1.06367
H      0.88535    -3.10184     1.69312
O     -0.07727    -1.10871    -1.63297
H      0.84749    -0.78494    -1.51680
O     -0.80462    -0.01960    -1.04240
H     -1.53918     0.11085    -1.65764
O      2.35248    -0.23663    -1.04934
H      2.27761     0.54978    -0.46090
O      3.05277    -1.17587    -0.23374
H      2.34151    -1.77818     0.01377
O     -2.27559     2.33163     0.10982
H     -1.36390     2.61203    -0.08079
O     -2.77957     2.10978    -1.20702
H     -3.45047     2.79887    -1.27958
O     -0.28263    -0.01317     1.79322
H     -0.04613    -0.90916     1.49015
O     -1.69362    -0.10292     1.93551
H     -1.98110     0.60806     1.34742
O      1.45951     1.63521     0.63073
H      0.83583     1.11993     1.18352
O      0.61633     2.11507    -0.41807
H      0.17911     1.29110    -0.69752
