 32
-1213.3171982362599
O      2.61635    -1.58776    -1.52241
H      1.96639    -2.07382    -0.96740
O      2.02642    -1.69334    -2.80867
H      2.70947    -2.18482    -3.27200
O      1.36150     0.82511     1.87653
H      1.93514     0.73564     1.08772
O      0.46502    -0.27798     1.69814
H     -0.39426     0.19124     1.64378
O     -1.23475     1.05504    -1.64037
H     -1.82346     0.79412    -0.90395
O     -0.29215    -0.02571    -1.63944
H      0.55322     0.46251    -1.57160
O      1.83738     1.55512    -1.23974
H      1.66247     2.35223    -0.70522
O      2.75761     0.84934    -0.39842
H      2.79360    -0.01483    -0.86155
O      0.70635     3.31547     0.45396
H      0.73802     2.71666     1.21670
O     -0.68089     3.31728     0.12490
H     -0.69345     2.83322    -0.71617
O      0.76981    -2.44071     0.21312
H      0.68614    -1.69981     0.84977
O     -0.50001    -2.39455    -0.44306
H     -0.41848    -1.58780    -0.99399
O     -2.22338    -1.82695     1.50757
H     -1.65367    -2.25097     0.82367
O     -3.42597    -2.58983     1.40471
H     -3.49657    -2.92211     2.30348
O     -1.72191     1.24113     1.50005
H     -1.61076     2.12829     1.11132
O     -2.65870     0.64764     0.58888
H     -2.65565    -0.27355     0.92987
