 32
-1213.3166142531334
O      1.56787     1.88666    -2.09117
H      2.19438     1.61118    -1.39339
O      0.58898     0.84684    -1.97565
H     -0.03334     1.25378    -1.33923
O     -0.80541    -2.45696     1.58630
H     -0.36516    -1.62109     1.84136
O     -0.17269    -2.69056     0.32451
H     -0.71134    -2.14316    -0.28700
O     -1.26911    -1.35968    -2.59722
H     -0.76692    -0.56803    -2.83885
O     -1.57733    -1.03443    -1.23868
H     -2.54585    -1.04631    -1.21163
O      0.44416     3.42948    -0.06439
H      0.83693     3.41317    -0.95001
O     -0.63416     2.50788    -0.28717
H     -0.70891     2.06440     0.58271
O      2.39019    -1.45466    -1.25895
H      1.74737    -0.82347    -1.61405
O      2.14185    -1.34184     0.13829
H      1.39333    -1.96929     0.27990
O      2.86365     1.19789     0.14420
H      2.71104     0.22829     0.23370
O      2.07727     1.70299     1.23035
H      1.61474     2.44963     0.80079
O     -0.94685     0.91216     1.79124
H     -1.69820     0.30908     1.62326
O      0.14400    -0.00644     1.91177
H      0.91894     0.57330     1.71805
O     -3.32196    -1.80090     0.92599
H     -2.47676    -2.17655     1.25496
O     -3.21712    -0.47109     1.42448
H     -3.92523    -0.44289     2.07730
