 36
-1364.974896100181
O     -1.45406     3.57247     0.20693
H     -1.97644     4.19921    -0.30271
O     -0.16488     3.66846    -0.39308
H     -0.14561     2.84374    -0.92502
O     -1.52300    -0.77383     1.36636
H     -1.02528     0.04131     1.60765
O     -0.52760    -1.79388     1.44566
H     -0.65004    -2.25146     0.58821
O     -0.28752     2.13724     3.06958
H      0.62986     2.42250     2.97013
O     -0.51003     1.63777     1.75423
H     -1.00809     2.36014     1.32610
O      1.75400     3.44733     1.58671
H      1.10338     3.66893     0.89858
O      2.46565     2.40817     0.92581
H      3.33039     2.80264     0.76991
O     -0.58532     1.41452    -1.76664
H     -1.45253     1.07411    -1.43407
O      0.08192     0.18244    -2.00701
H      0.54623     0.02820    -1.15727
O      1.44779    -0.00036     0.25237
H      1.80088     0.80740     0.66961
O      2.01064    -1.05288     1.02715
H      1.19061    -1.39375     1.43634
O     -0.57088    -2.96901    -0.93427
H      0.14155    -3.57168    -1.20771
O     -1.77373    -3.63110    -1.33403
H     -2.20495    -2.87607    -1.76047
O      2.24662    -3.06238    -1.27020
H      2.30857    -2.46135    -0.51606
O      1.84720    -4.26708    -0.60843
H      2.38312    -4.91508    -1.07225
O     -2.23419    -0.97830    -2.02474
H     -1.29514    -0.74830    -2.18641
O     -2.53475    -0.05954    -0.98374
H     -2.21374    -0.51118    -0.16995
