 24
-909.9775398120729
O     -0.55462    -2.34864    -1.52312
H     -1.00119    -1.48807    -1.52315
O      0.32355    -2.15797    -2.63088
H      0.33081    -3.03439    -3.02782
O     -2.16055    -0.55764     1.41086
H     -1.24013    -0.85467     1.59148
O     -2.46594     0.22348     2.56455
H     -3.15961    -0.30945     2.96317
O      1.80118    -0.67370    -0.98687
H      1.38095    -1.24748    -1.65900
O      1.59134     0.61583    -1.56908
H      1.82949     1.20836    -0.82848
O     -1.06278     0.45739    -1.50227
H     -0.10252     0.60515    -1.61699
O     -1.34697     1.29666    -0.37711
H     -1.82213     0.67816     0.21853
O      0.46336    -1.07113     1.31301
H      1.02517    -0.95953     0.52072
O      1.18637    -0.33469     2.30538
H      0.96314     0.58065     2.07563
O      0.64384     2.14842     1.18248
H     -0.03337     1.86692     0.52240
O      1.77163     2.42878     0.36277
H      1.74072     3.38708     0.28130
