 28
-1061.6479442977086
O      1.41370    -0.94858    -2.14465
H      1.80354    -1.18109    -1.28320
O      0.06787    -0.66716    -1.74837
H     -0.25812    -1.55681    -1.49970
O      1.19227    -1.52082     1.47126
H      0.78152    -2.35706     1.20524
O      2.16334    -1.33942     0.43792
H      2.44579    -0.42190     0.62734
O      0.20251     2.18657     0.02524
H     -0.35913     1.57601     0.54842
O     -0.21968     1.93148    -1.31128
H     -1.22767    -3.78419    -1.25105
O     -3.14931     1.65707     0.00215
H     -3.26415     2.50542     0.44100
O     -2.90456     2.02434    -1.35563
H     -1.92313     2.04591    -1.36426
O     -1.74817    -0.49227     0.55104
H     -2.32421     0.26475     0.29245
O     -0.85044     0.18461     1.43296
H     -0.06674    -0.40303     1.42244
O     -0.99279    -3.04458     0.47285
H     -1.40822    -2.15971     0.50441
O     -0.64666    -3.09919    -0.90709
H     -0.02064     0.97632    -1.43936
O      2.62989     1.29542     0.71320
H      1.80014     1.71917     0.39254
O      2.70471     1.76999     2.05397
H      3.54733     2.22844     2.02792
