 24
-909.979109999414
O     -0.93423     1.09483    -0.83323
H     -0.16931     1.28348    -0.25866
O     -0.28185     0.70704    -2.04916
H     -0.40414    -0.26081    -2.04164
O     -0.34813    -1.95730    -2.22253
H     -0.26440    -2.43400    -3.05192
O     -1.58424    -2.47187    -1.71236
H     -1.36397    -2.46047    -0.76250
O      2.95259     1.97855    -1.16759
H      2.70038     2.05819    -0.23845
O      2.37229     0.71635    -1.49179
H      1.54475     0.96135    -1.94384
O     -0.75746    -1.81667     0.74532
H      0.04860    -1.26298     0.77495
O     -1.82731    -0.87277     0.81811
H     -1.63140    -0.24097     0.09498
O     -1.48897     1.54612     3.06011
H     -1.63825     1.55831     4.01047
O     -0.71677     0.35293     2.92377
H     -1.30059    -0.20309     2.36261
O      1.45415    -0.27224     0.78322
H      1.86717    -0.12965    -0.09360
O      1.02145     1.08216     1.02809
H      0.48596     0.94298     1.83618
