 32
-1213.311341022578
O      2.40464     0.46531     2.25895
H      2.75176     0.58531     3.14846
O      3.46373    -0.18274     1.56389
H      3.05305    -1.04159     1.37409
O     -1.56229    -0.91152     1.15708
H     -0.81837    -0.28561     1.03613
O     -1.38271    -1.79981     0.04696
H     -0.57333    -2.27788     0.31012
O     -2.22059     0.12903    -1.61806
H     -1.85573    -0.65017    -1.13911
O     -1.33508     0.30040    -2.72368
H     -0.88714     1.12552    -2.49224
O      0.22139     1.01681     0.88477
H      1.04456     0.87407     1.40975
O     -0.43839     2.04522     1.62303
H     -1.33337     1.99169     1.19744
O      0.47788     2.21273    -1.40150
H      0.27847     1.88088    -0.49799
O      1.79538     1.68607    -1.56500
H      2.33910     2.47855    -1.57721
O      0.91871    -0.77684    -1.19396
H      1.34951     0.07185    -1.42106
O      0.71639    -1.38748    -2.46948
H     -0.10767    -0.92838    -2.72056
O      2.06706    -2.42023     0.49158
H      1.66875    -1.89430    -0.24295
O      0.87732    -2.81362     1.17517
H      0.99690    -3.76575     1.23076
O     -3.53234     0.96591     1.25502
H     -2.91038     0.22264     1.35953
O     -2.77734     1.81629     0.39733
H     -2.72643     1.27216    -0.41468
