 20
-758.3110723524447
O     -0.94736    -2.27626     0.41877
H     -1.29035    -1.42594     0.75998
O      0.22944    -1.84490    -0.26100
H      0.73956    -1.42728     0.46602
O      2.69134    -0.00917     1.54991
H      2.35041     0.75169     1.05634
O      1.44896    -0.68158     1.78963
H      1.53534    -0.99854     2.69600
O      0.79969     1.24569    -0.28642
H      0.51117     0.94753    -1.17671
O      0.41156     2.62233    -0.27346
H     -0.53948     2.53166    -0.10477
O     -0.15094     0.29013    -2.56384
H      0.19802    -0.25061    -3.27932
O     -1.18037    -0.52298    -2.00263
H     -0.65075    -1.13473    -1.43289
O     -2.08292     0.98688     0.17487
H     -1.92315     0.42158    -0.60106
O     -1.46606     0.23461     1.22425
H     -0.54956     0.53958     1.15395
