 24
-909.9778645656369
O     -3.51417    -0.41793    -0.00709
H     -4.30713    -0.73979    -0.44633
O     -2.50781    -0.72931    -0.97445
H     -2.02469    -1.44037    -0.50632
O      2.18723    -0.15505     0.84610
H      1.55642     0.53651     1.14242
O      1.29880    -1.14466     0.31157
H      0.99056    -0.69246    -0.49715
O      2.59811     1.83137    -1.76123
H      3.17164     2.25727    -2.40624
O      3.30723     0.60912    -1.52657
H      3.05549     0.42970    -0.60115
O      0.30251     1.67406     1.37518
H     -0.13289     1.73207     0.50299
O     -0.74758     1.17790     2.19987
H     -0.50608     0.24695     2.30385
O     -1.13457    -2.20937     0.82414
H     -0.20204    -1.92085     0.77116
O     -1.55145    -1.64796     2.07238
H     -2.33113    -1.14967     1.78944
O      0.38209     0.38117    -1.65565
H      1.11429     1.01015    -1.83887
O     -0.62887     1.25038    -1.12820
H     -1.40446     0.65682    -1.13859
