 36
-1364.9712576989853
O      3.02052     0.36687    -0.50771
H      2.86491     1.12695     0.08943
O      3.74023    -0.55638     0.29825
H      3.02890    -0.95899     0.81883
O     -0.77971    -1.28226    -0.29929
H     -0.01458    -1.48231    -0.88298
O     -0.51912    -2.08381     0.85648
H      0.22637    -1.59960     1.26892
O     -2.45266    -0.07688     1.79255
H     -2.20391    -0.98897     1.58014
O     -1.36742     0.32224     2.64057
H     -1.82070     0.91075     3.25349
O     -0.37042     1.31542    -0.11866
H     -0.52607     0.34238    -0.16683
O      0.47269     1.55249    -1.25161
H     -0.19093     1.54395    -1.97686
O     -3.70965    -0.74123    -1.03435
H     -3.09313    -1.03435    -1.72142
O     -3.33811     0.63686    -0.93242
H     -2.95256     0.67238    -0.04344
O     -1.58189     1.07414    -2.89005
H     -2.31898     1.11265    -2.24668
O     -1.50539    -0.34810    -3.06728
H     -0.54342    -0.48993    -3.05119
O      2.39404     2.30485     1.28007
H      2.34277     3.26551     1.30624
O      1.18019     1.90888     1.91612
H      0.54539     1.81669     1.15789
O      1.46825    -1.36185    -1.73321
H      2.08134    -0.66126    -1.37779
O      1.16244    -0.87213    -3.03701
H      1.58310    -1.53975    -3.58637
O      1.18296    -1.24788     3.47284
H      0.22214    -1.15953     3.54171
O      1.39802    -0.79448     2.15372
H      1.38070     0.18593     2.23485
