 24
-909.9787852091006
O     -0.55407    -2.30057     0.17465
H     -0.61685    -1.80658    -0.66771
O     -1.91900    -2.65997     0.38487
H     -2.36188    -1.79902     0.33445
O      0.49769     0.33364    -1.74745
H      1.11496    -0.21083    -1.22168
O     -0.67271    -0.49259    -1.77131
H     -1.37114     0.13854    -1.49118
O      2.09103    -1.28576    -0.35578
H      1.53569    -1.92888     0.11517
O      3.15978    -1.04792     0.55221
H      3.88748    -1.46759     0.08292
O     -2.47897     0.23559     0.44498
H     -1.61438     0.38129     0.89762
O     -2.41815     1.16747    -0.63479
H     -1.87490     1.88911    -0.28102
O     -0.22857     0.78462     1.61593
H      0.45424     1.35114     1.20409
O      0.51328    -0.32788     2.12439
H     -0.00177    -1.06286     1.76215
O      1.26578     2.54228     0.25895
H      1.43377     3.46359     0.47368
O      0.10608     2.64875    -0.56525
H      0.25959     1.87250    -1.14326
