 36
-1364.9800757670187
O      0.44447     2.39956    -0.41107
H      0.16068     2.69668     0.46950
O     -0.70324     2.69611    -1.21241
H     -1.22237     1.86246    -1.13997
O      1.31687     0.35427     2.80687
H      2.10278    -0.15468     2.53093
O      0.29116    -0.53990     2.36865
H      0.38237    -0.46671     1.38779
O      0.29491    -1.19358    -2.73672
H     -0.04298    -0.35494    -3.11458
O     -0.86209    -1.64965    -2.02314
H     -0.45074    -2.25100    -1.36105
O     -2.08732     0.43971    -0.88574
H     -1.68748    -0.33625    -1.34457
O     -2.17996    -0.03706     0.45899
H     -1.79912     0.70803     0.95304
O     -0.83272     1.04060    -3.59009
H     -1.49851     1.23968    -4.25596
O      0.12996     2.08464    -3.76196
H     -0.04381     2.59003    -2.94789
O      0.74790    -0.21837    -0.22410
H      0.81491     0.73720    -0.46040
O      1.96899    -0.77390    -0.73711
H      1.60731    -1.11226    -1.58245
O     -0.90422     2.13102     2.19674
H     -0.23711     1.58541     2.66113
O     -1.06294     3.26231     3.05413
H     -1.92509     3.08030     3.44202
O      2.81992    -1.64303     1.73761
H      2.57774    -1.45534     0.81094
O      1.99479    -2.77509     2.03839
H      1.32147    -2.36376     2.60014
O     -1.01813    -3.01309     0.92556
H     -1.34376    -2.10962     0.80089
O      0.09602    -3.04502     0.03501
H      0.85029    -3.13909     0.64671
