 36
-1364.975221919475
O      1.08323     0.58229     2.04666
H      1.67979     0.48975     1.27482
O     -0.04879    -0.20280     1.67686
H      0.25457    -1.11858     1.85501
O     -0.79320    -2.63325    -0.68562
H     -0.48064    -1.77081    -1.03151
O     -1.78960    -2.24529     0.26975
H     -2.59123    -2.21804    -0.27337
O      1.00974     3.88148     1.47041
H      1.12194     4.41607     2.26136
O     -0.02792     2.98244     1.85702
H      0.47231     2.16182     2.06639
O      0.09356    -0.33868    -1.76799
H     -0.09482     0.48957    -1.26474
O     -0.65575    -0.17987    -2.95657
H     -1.55171    -0.34099    -2.61747
O     -1.07603     1.62695    -0.43324
H     -0.80046     2.31286     0.20240
O     -2.02488     0.87497     0.34045
H     -1.41280     0.34126     0.89107
O      2.66451     2.14816     0.24607
H      2.15915     2.90201     0.59457
O      2.03115     1.97428    -1.02695
H      2.54504     1.24020    -1.39054
O     -4.68510    -0.30441    -1.39094
H     -4.84549     0.23219    -2.17296
O     -3.28607    -0.55194    -1.50085
H     -2.92093     0.03140    -0.79183
O      1.35210    -3.24564     0.88804
H      0.54112    -3.22220     0.34115
O      0.85249    -2.69116     2.10621
H      1.44153    -3.08275     2.75970
O      2.52273    -0.97260    -0.01684
H      2.35150    -1.90104     0.23712
O      2.66321    -1.05409    -1.44307
H      1.74580    -0.89995    -1.73139
