 36
-1364.9783933840647
O     -1.64401     2.16010    -2.31859
H     -2.18901     1.63363    -1.68604
O     -0.90011     2.97831    -1.40543
H     -1.51332     3.69731    -1.21943
O     -2.79485     0.95186    -0.26187
H     -2.10534     1.10212     0.42191
O     -2.81032    -0.46739    -0.38743
H     -2.21273    -0.60078    -1.16042
O      2.08682    -0.25411     1.81076
H      1.29033     0.13949     2.23056
O      3.08461     0.74558     1.96823
H      2.94293     1.25873     1.16134
O      1.63675     0.10943    -0.90984
H      1.59778    -0.44084    -0.10776
O      1.28532     1.38187    -0.34083
H      0.92624     1.85186    -1.11494
O     -0.75903     1.51490     1.33774
H      0.02338     1.46920     0.74397
O     -0.35157     0.70237     2.44675
H     -0.92601    -0.08457     2.33651
O     -0.46767    -1.96625     1.19658
H     -0.01869    -2.36948     1.97058
O     -1.68373    -1.51348     1.80462
H     -2.20374    -1.24821     1.01708
O      1.56836     1.71106    -3.16698
H      2.11709     0.96366    -2.90680
O      0.52816     1.01735    -3.87258
H     -0.21024     1.61900    -3.71618
O      2.02853    -3.09438     2.46137
H      2.32842    -2.17553     2.41476
O      0.87637    -2.91195     3.28283
H      0.88453    -3.70998     3.82009
O     -1.00270    -0.92049    -2.23706
H     -0.32339    -0.43380    -2.73306
O     -0.31773    -2.09913    -1.82367
H     -0.36386    -2.01159    -0.86296
