 20
-758.3127343395373
O      0.02608    -1.96550    -0.61555
H      0.68105    -2.03015     0.10101
O     -1.16266    -1.73122     0.15586
H     -1.48465    -0.89594    -0.23214
O      2.26519     0.04196    -1.87767
H      2.35140     0.42670    -2.75438
O      0.91126     0.38196    -1.58684
H      0.51746    -0.50432    -1.43950
O      1.12628     1.38190     0.88874
H      1.02947     1.18644    -0.06585
O     -0.22383     1.70212     1.26960
H     -0.34072     1.06646     1.99369
O      1.22187    -1.15735     1.75087
H      1.46269    -0.26239     1.45142
O     -0.02666    -0.84511     2.40768
H     -0.63139    -1.23915     1.75288
O     -1.94617     1.34198    -1.81207
H     -2.87203     1.58473    -1.90734
O     -1.97870     0.72618    -0.53181
H     -1.38098     1.29475    -0.00491
