 36
-1364.9764377333158
O      2.09718     3.62388    -0.00363
H      1.86530     3.14943     0.82702
O      2.97745     2.68657    -0.62808
H      3.83477     2.88738    -0.23899
O     -2.08032    -3.18308    -0.15820
H     -2.50906    -2.32919    -0.36254
O     -2.41698    -3.39914     1.20799
H     -1.68665    -2.95819     1.66589
O      2.08202     0.31002     0.14612
H      2.35871     1.06800    -0.40248
O      3.14984    -0.60731    -0.04844
H      2.64304    -1.42729     0.00019
O     -0.95527     0.01225    -2.74639
H     -0.55484     0.80396    -2.33864
O      0.04249    -0.95492    -2.44290
H      0.34719    -1.24170    -3.30995
O     -3.02812    -0.79182    -0.96222
H     -2.61319    -0.69733    -1.83136
O     -2.37804     0.28406    -0.28509
H     -2.04793    -0.12751     0.54306
O     -0.94025     2.51614    -0.42637
H     -1.57957     1.77670    -0.48959
O      0.03537     2.09824    -1.38307
H      0.53602     2.91758    -1.51031
O     -0.01470     2.03519     2.09643
H     -0.27270     2.35693     1.21114
O      1.40525     2.02342     2.04408
H      1.60257     1.19417     1.56143
O     -0.38474    -1.45114     2.37347
H      0.08923    -1.59532     1.52945
O     -1.23450    -0.35920     2.02333
H     -0.72059     0.42558     2.30505
O      0.53759    -3.30132    -0.35797
H     -0.43639    -3.43927    -0.30363
O      0.56979    -1.91751    -0.03267
H      0.34395    -1.49631    -0.88540
