 32
-1213.3070065896402
O     -1.94078    -0.09168     0.23478
H     -1.98796    -0.49758     1.11948
O     -0.83549    -0.84675    -0.30260
H     -1.11193    -0.88053    -1.24899
O      1.43460    -2.26628    -2.08418
H      2.05515    -2.73909    -2.64750
O      2.30942    -1.68888    -1.11638
H      2.27623    -0.74468    -1.36487
O      1.25817    -1.68036     1.76610
H      1.73877    -1.65563     0.91957
O      1.98120    -0.77679     2.59970
H      1.51089     0.05951     2.44661
O      0.09494     1.62345     2.73656
H     -0.50781     0.92870     3.05046
O     -0.65602     2.19983     1.66142
H     -0.04310     2.06299     0.92423
O      1.22263     0.81726    -0.17501
H      0.49931     0.14055    -0.15571
O      1.54364     0.89234    -1.56489
H      0.82370     1.45644    -1.89570
O     -1.54038    -0.48084    -2.81231
H     -1.78903     0.45525    -2.78091
O     -0.40246    -0.46806    -3.67897
H      0.18460    -1.06120    -3.19118
O     -1.29355    -1.47100     2.44905
H     -0.37654    -1.64629     2.13642
O     -1.05879    -0.67616     3.61583
H     -0.47659    -1.23395     4.14074
O     -2.05171     2.03278    -1.43000
H     -1.98793     1.41930    -0.67275
O     -0.77139     2.66091    -1.41544
H     -0.96682     3.52092    -1.02866
