 40
-1516.6437592466762
O      2.36046    -1.24857    -1.80269
H      2.44470    -2.22287    -1.76724
O      1.20227    -1.08440    -2.62823
H      1.04649    -0.12547    -2.53797
O     -2.57776     1.11537     2.16007
H     -1.86007     1.72678     2.41007
O     -2.74157     1.45697     0.78311
H     -2.71556     0.57646     0.34204
O     -0.41752     2.71354     2.55591
H     -0.64786     3.47309     1.99955
O      0.62318     2.11247     1.78783
H      0.23419     1.24129     1.57377
O      0.57113    -1.39010     1.71783
H      1.39500    -1.00741     1.35631
O     -0.32370    -0.33453     1.37623
H     -1.10050    -0.48273     1.93896
O     -1.14595     3.90343    -0.57544
H     -1.51355     4.55056    -1.18574
O     -1.99957     4.00942     0.55940
H     -2.40548     3.11739     0.55011
O     -0.39959     1.39543    -1.12032
H     -0.65960     2.32189    -0.92414
O      0.76603     1.55802    -1.93417
H      1.46262     1.59311    -1.24207
O     -1.53414    -0.98275    -1.40145
H     -1.07901    -0.12582    -1.25024
O     -2.57759    -0.94271    -0.41868
H     -2.36717    -1.77294     0.05236
O     -0.50761    -3.33597    -0.74715
H     -0.68861    -2.53219    -1.27890
O     -1.17599    -3.02067     0.48245
H     -0.47027    -2.55455     0.96430
O      2.06103    -3.59182    -0.04075
H      1.11977    -3.61045    -0.31794
O      2.68026    -3.85136    -1.30434
H      3.47638    -4.31633    -1.03476
O      2.58148     1.48521     0.05421
H      2.12010     1.90924     0.79946
O      2.51967     0.11384     0.45891
H      2.51303    -0.33733    -0.41706
