 20
-758.3099724458957
O     -1.99882     0.08972    -0.78363
H     -2.18513     0.03010     0.17038
O     -1.28415    -1.14044    -0.96049
H     -0.40035    -0.84132    -1.24557
O      1.28844     0.16696     1.22148
H      1.88745     0.12580     0.45767
O      1.54577    -1.06836     1.89179
H      0.76621    -1.58907     1.65211
O     -0.17484     2.04013    -1.08864
H     -0.96042     1.45755    -1.08624
O     -0.07519     2.39875     0.28899
H      0.43203     1.65212     0.64592
O      1.11915    -0.62138    -1.96193
H      1.37204    -0.74874    -2.88244
O      1.92298     0.49227    -1.57633
H      1.22845     1.18803    -1.52685
O     -1.27573    -1.94154     1.56066
H     -1.30919    -1.95021     0.58543
O     -1.84482    -0.63974     1.79174
H     -1.08048    -0.14704     2.11747
