 32
-1213.3096092118153
O      0.36142     0.91885     1.61564
H     -0.28204     1.25801     0.95326
O      1.59985     1.03736     0.91843
H      1.46890     0.40649     0.18511
O     -1.31538    -2.03915    -0.71597
H     -0.43819    -1.85988    -0.31121
O     -1.29617    -1.22204    -1.89480
H     -1.83051    -0.46164    -1.60336
O      1.12809     3.37128    -1.91510
H      1.85224     3.87388    -2.30333
O      1.24596     3.69543    -0.53030
H      1.53707     2.84847    -0.15715
O     -1.06998     1.73872    -0.44595
H     -1.31003     2.63549    -0.71086
O     -2.27118     0.99412    -0.66413
H     -2.41234     0.61071     0.23177
O      1.58651     0.62257    -3.00250
H      1.27470     1.47953    -2.68050
O      1.21446    -0.19313    -1.90104
H      0.36696    -0.60636    -2.16699
O      2.15957    -2.39885    -0.31222
H      2.26702    -1.80979    -1.07165
O      1.10441    -1.69617     0.34925
H      1.25313    -1.93232     1.28684
O      0.96133    -2.13265     2.94540
H      1.37882    -2.17151     3.81139
O     -0.10990    -1.21481     3.14829
H      0.24221    -0.41251     2.70838
O     -2.43360    -0.39056     1.56795
H     -1.83634    -0.94555     2.09593
O     -3.28077    -1.34658     0.92888
H     -2.66269    -1.70835     0.25815
