 24
-909.9745875570574
O     -3.31010    -0.86986     0.16771
H     -3.76139    -1.68679    -0.06514
O     -2.64330    -1.21047     1.38172
H     -1.76492    -1.46435     1.04668
O      1.72558     0.30996    -1.92043
H      1.60720    -0.44019    -1.30403
O      1.95684     1.41201    -1.03865
H      2.55439     1.02741    -0.37623
O      1.13276    -1.64469    -0.17783
H      1.26269    -1.36545     0.74038
O     -0.27246    -1.89167    -0.22034
H     -0.55943    -1.32406    -0.96320
O     -1.45501    -0.23477    -1.94908
H     -2.19685    -0.08695    -1.34386
O     -0.87710     1.07499    -1.98686
H      0.06614     0.86681    -2.14420
O      3.25352     0.46232     1.14175
H      3.77418     1.02962     1.72018
O      2.18007     0.06249     1.97762
H      1.47126     0.66192     1.68952
O     -0.38768     0.97414     0.84137
H     -0.52957     1.42888    -0.00660
O     -1.36435     1.55715     1.71672
H     -1.96356     0.80744     1.83336
