 32
-1213.2990696963218
O      3.11405     0.68815    -0.20811
H      3.83213     0.19784     0.20256
O      3.21445     1.98781     0.38946
H      2.32262     2.05111     0.77711
O     -1.04084    -1.75897     0.01941
H     -0.29463    -1.67467     0.65411
O     -0.35052    -1.90131    -1.22454
H     -0.16451    -0.97715    -1.46112
O     -1.09188     1.59821    -2.48410
H     -0.14553     1.66247    -2.65375
O     -1.04390     1.04913    -1.15459
H     -1.94680     0.71807    -1.02360
O      0.63856     1.46902     0.87498
H      0.07803     1.50739     0.07243
O     -0.21911     1.99819     1.88001
H     -0.45778     1.17642     2.32946
O      1.50077     0.16911    -2.26175
H      2.16125     0.39533    -1.57513
O      1.62824     1.30508    -3.11987
H      1.69574     0.87356    -3.97513
O      1.40990    -1.46458     0.83754
H      1.52615    -0.51394     0.66729
O      2.13501    -2.05541    -0.24892
H      1.38262    -2.27887    -0.82690
O     -2.06704    -1.31800     2.91829
H     -2.52774    -0.78204     2.25528
O     -0.73846    -0.82390     2.73414
H     -0.20761    -1.51595     3.13995
O     -3.56725     0.04389     1.06525
H     -4.51748    -0.05166     1.17585
O     -3.37845    -0.50988    -0.23636
H     -2.66108    -1.14641    -0.05244
