 32
-1213.307932892496
O      2.06603     0.15938    -0.86783
H      2.27385     1.10355    -0.93483
O      2.58332    -0.22571     0.40633
H      1.96917     0.22115     1.01294
O     -1.94282    -2.25762    -0.11556
H     -2.44225    -3.07865    -0.04625
O     -2.46638    -1.68193    -1.31390
H     -1.63200    -1.38572    -1.73527
O     -0.15077    -0.55626    -2.11935
H      0.71555    -0.45047    -1.67159
O     -0.61414     0.79251    -2.17526
H     -1.13468     0.85448    -1.34487
O      1.10996     1.93299     1.51274
H      0.77872     2.44002     0.74802
O     -0.06348     1.78612     2.31766
H     -0.10694     0.81416     2.38813
O      0.45469     3.24098    -0.71032
H      0.35433     4.16203    -0.97256
O      1.20271     2.69354    -1.79426
H      0.54745     2.05214    -2.14163
O      1.03204    -3.07945    -0.60396
H      0.11918    -2.86478    -0.36742
O      1.71340    -2.84293     0.62406
H      2.16671    -2.00160     0.44240
O     -0.17933    -2.11004     2.39894
H      0.57770    -2.48145     1.89686
O     -0.21213    -0.79653     1.84624
H     -0.95487    -0.82203     1.21365
O     -2.11388     2.14468     0.57823
H     -1.47055     2.12630     1.31483
O     -1.96733     0.80076     0.11262
H     -2.86519     0.45147     0.16687
