 32
-1213.3142838330234
O      2.47544    -1.10975     0.94297
H      1.61664    -1.12324     0.49500
O      2.66186     0.27904     1.18578
H      2.77207     0.63628     0.28062
O     -1.27085    -2.08010     0.03529
H     -1.05730    -1.86077     0.96616
O     -0.20100    -1.40785    -0.60710
H     -0.61667    -0.62693    -1.03462
O     -1.05968     0.83488    -1.81463
H     -0.24242     1.37294    -1.85599
O     -1.84835     1.66208    -0.94958
H     -2.68425     1.17142    -0.93669
O     -0.65112     1.59361     1.48742
H     -1.08997     1.75225     0.63047
O      0.60741     2.24878     1.32412
H      1.20928     1.58190     1.69419
O      1.22049     2.10680    -1.28641
H      1.09575     2.28594    -0.33033
O      2.32531     1.19908    -1.28924
H      1.99869     0.51463    -1.90615
O      1.66689    -1.93695    -2.73695
H      0.91254    -2.22020    -2.20012
O      1.29905    -0.57769    -2.98030
H      1.24365    -0.53502    -3.94099
O     -0.45338    -0.95258     2.27930
H     -0.64636    -0.00872     2.09011
O      0.51336    -0.86335     3.32083
H      1.30702    -1.17448     2.86316
O     -3.20067    -0.05866     1.37072
H     -3.79427    -0.61875     1.88159
O     -3.46898    -0.48003     0.02618
H     -2.74937    -1.13515    -0.10122
