 40
-1516.6419421775377
O      1.13136    -1.00460    -2.27460
H      1.45169    -1.51729    -1.49692
O      2.31423    -0.35395    -2.70863
H      2.26117     0.47725    -2.21600
O     -0.53182    -1.69299     0.70711
H     -0.57838    -2.62841     0.45796
O     -1.84332    -1.19389     0.43705
H     -1.71241    -0.80268    -0.45242
O      0.62399     2.76313     3.06843
H      0.80966     3.03258     3.97302
O      1.84992     2.17081     2.64894
H      1.60107     1.21849     2.63613
O     -1.30274     0.06439    -1.88884
H     -0.42343    -0.25951    -2.17423
O     -0.98884     1.39283    -1.45090
H     -1.88840     1.73312    -1.23358
O     -1.41143     1.97722     1.49663
H     -0.68900     2.24078     2.09920
O     -2.01392     0.90659     2.22704
H     -2.00725     0.19313     1.56287
O      1.46218     1.28980    -0.31966
H      0.52118     1.42727    -0.58372
O      1.97905     2.59711    -0.10267
H      2.03939     2.58066     0.86831
O     -3.41701     3.14892     0.17949
H     -2.71241     2.72961     0.71588
O     -3.47410     2.20867    -0.90569
H     -4.09929     2.63592    -1.49926
O     -1.16330    -2.99691    -1.92792
H     -1.85817    -3.26619    -2.54000
O     -0.02371    -3.72221    -2.40113
H      0.49786    -3.00200    -2.78908
O      1.16816    -0.34852     2.21234
H      0.47733    -0.81653     1.69500
O      2.31240    -0.50748     1.37454
H      2.11340     0.18103     0.70140
O      1.28724    -3.72338     0.21478
H      1.00168    -4.12588    -0.61350
O      1.99203    -2.59494    -0.30736
H      2.17466    -2.06704     0.49990
