 32
-1213.3065865083918
O      3.26642     0.41109     0.74777
H      3.83218     0.69693     1.47185
O      2.56845     1.61464     0.40695
H      1.66455     1.40537     0.73664
O     -1.21693    -1.58049    -0.29683
H     -0.42288    -1.11068     0.02083
O     -0.85448    -1.91135    -1.63977
H     -0.89055    -1.02559    -2.04979
O     -0.86768     0.71942    -2.09281
H      0.07932     0.95846    -2.20678
O     -1.30485     1.75024    -1.20109
H     -2.18046     1.39599    -0.92199
O      0.07833     0.86752     0.82486
H     -0.43271     1.26225     0.07096
O     -0.69981     1.23335     1.97588
H     -0.56964     0.41155     2.49178
O      1.78665     1.08031    -2.31015
H      2.25594     1.36415    -1.50464
O      2.07502     2.13883    -3.22363
H      2.62851     1.68023    -3.86326
O      1.53814    -1.63447     0.61425
H      2.18529    -0.90342     0.64917
O      2.03004    -2.40916    -0.48056
H      1.20419    -2.59237    -0.95050
O     -1.55423    -1.96666     2.76597
H     -1.81891    -1.91254     1.83481
O     -0.32167    -1.25642     2.77028
H      0.26176    -1.78059     2.19860
O     -3.28962     0.46889     1.32902
H     -2.43550     0.89909     1.52228
O     -3.32426     0.44712    -0.09916
H     -3.04089    -0.45762    -0.29483
