 24
-909.979450040687
O     -2.62283    -1.18149     0.80412
H     -1.99155    -1.22326     1.53451
O     -1.75150    -0.72566    -0.22569
H     -2.19398     0.06158    -0.60403
O      1.04147    -2.24765    -0.29145
H      0.99903    -3.12413    -0.68545
O      0.53545    -1.41071    -1.32894
H     -0.36262    -1.22230    -0.97596
O      1.93916     0.88604    -1.05265
H      1.46758     0.05964    -1.26339
O      0.91614     1.86148    -1.28105
H      0.57546     1.97078    -0.36728
O     -1.26837     0.85233    -2.51025
H     -0.45479     1.30204    -2.21105
O     -2.23888     1.49544    -1.67525
H     -2.90257     1.75271    -2.32147
O      1.25643    -1.20266     2.86797
H      1.70338    -0.35341     2.73153
O      0.18302    -1.05535     1.93890
H      0.52533    -1.56056     1.17670
O      0.42658     1.50357     1.27565
H      0.04507     0.62071     1.43911
O      1.80357     1.18939     1.56900
H      2.10715     0.97289     0.66479
