 36
-1364.9749173412763
O      1.15039     3.45967     0.79232
H      1.13119     2.97629    -0.05149
O      2.14912     2.72935     1.50061
H      2.85319     3.37849     1.60172
O     -2.93426     0.73707    -1.75145
H     -2.66888     1.13737    -0.91136
O     -2.25003    -0.51119    -1.67011
H     -1.61222    -0.44756    -2.39923
O      1.99661     0.01407     1.51359
H      2.02220     0.98759     1.47708
O      2.14675    -0.35148     0.13315
H      1.80252    -1.27040     0.15803
O      0.96525    -0.34350    -2.70802
H      1.00619     0.39895    -2.06535
O     -0.23082     0.00157    -3.40908
H      0.02003    -0.14554    -4.32643
O      1.13201    -2.73124     3.05964
H      1.27270    -3.06306     2.16409
O      0.33643    -1.58446     2.80144
H      0.97982    -0.95113     2.40789
O     -1.19163     1.94707     1.88072
H     -0.54766     2.59208     1.56056
O     -1.31888     1.13191     0.71213
H     -1.60478     0.26452     1.10234
O     -0.43056     2.65320    -1.91395
H     -0.61366     2.13235    -2.70733
O      0.34285     1.71315    -1.17728
H     -0.31830     1.37009    -0.51920
O     -1.70423    -2.12013     0.42447
H     -2.03504    -1.57642    -0.32029
O     -1.97550    -1.27928     1.55253
H     -1.21943    -1.50714     2.13879
O      0.72468    -3.06356    -1.34681
H      0.87690    -2.21730    -1.78932
O      0.84646    -2.68449     0.01776
H     -0.10017    -2.58320     0.27247
