 32
-1213.3130103595304
O      2.58164     0.87200     2.78328
H      3.24294     1.22179     3.38648
O      2.55991     1.87033     1.77462
H      1.61118     1.83362     1.53134
O     -2.79555    -2.39853     0.22840
H     -3.04896    -2.17316    -0.67845
O     -1.37606    -2.32119     0.10146
H     -1.08673    -3.13570     0.52666
O     -2.11624    -0.46237    -2.52054
H     -2.19677     0.30351    -3.09785
O     -3.40234    -0.55201    -1.90565
H     -3.28991     0.05878    -1.13223
O      0.10216     1.53548     0.81365
H      0.10563     1.31864    -0.14509
O     -0.47929     0.38415     1.43192
H      0.13282    -0.34500     1.19356
O      3.55997     1.93397    -0.85949
H      3.21898     1.97697     0.04483
O      3.00290     0.72046    -1.35203
H      3.06215     0.10854    -0.59239
O      0.40649     0.81637    -1.76534
H      1.37898     0.94498    -1.81985
O      0.35519    -0.61373    -1.66729
H     -0.59010    -0.75958    -1.87386
O      1.35004    -1.44869     0.63453
H      1.15610    -1.31080    -0.31458
O      2.64852    -0.86490     0.76146
H      2.56396    -0.36686     1.59591
O     -3.79407     0.05608     1.08415
H     -3.47032    -0.85096     0.97901
O     -2.84979     0.76284     0.28220
H     -1.99738     0.63180     0.76421
