 36
-1364.976619862847
O      0.68084     2.33157    -0.18056
H      1.16071     2.02766    -0.97642
O      1.15949     1.37057     0.77636
H      0.36726     1.24030     1.35068
O      1.01949    -3.55408    -0.11871
H      0.21557    -3.30459     0.37682
O      0.78559    -2.90514    -1.37372
H      1.31583    -2.09756    -1.23340
O     -1.09905     1.84140     3.36155
H     -1.65588     2.47865     2.89708
O     -0.96224     0.86470     2.32087
H     -1.08244     0.02286     2.78997
O      3.21164     0.70441    -2.41820
H      3.31777     0.20723    -1.59465
O      1.87562     1.18442    -2.28293
H      1.33765     0.48403    -2.69379
O     -2.28163    -0.50336    -0.12260
H     -2.44784    -0.99013    -0.94571
O     -1.62749     0.64638    -0.66942
H     -2.06727     1.38173    -0.19680
O     -1.43157     3.52418     1.01878
H     -0.68666     3.14293     0.50772
O     -2.55613     2.92739     0.38016
H     -2.95501     3.66919    -0.08563
O      2.39118    -1.55492     1.04736
H      2.17268    -2.46801     0.78661
O      2.01895    -0.92067    -0.18462
H      1.69557    -0.04327     0.13551
O     -1.30193    -1.53673    -2.48151
H     -0.63216    -2.16733    -2.16403
O     -0.48389    -0.39982    -2.80121
H     -0.82283     0.20904    -2.12088
O     -0.26633    -1.82914     2.43927
H      0.62218    -1.61497     2.11718
O     -0.88779    -2.35113     1.27147
H     -1.30697    -1.57369     0.84881
