 32
-1213.3098542193984
O      3.11975     1.05875     0.26880
H      3.55507     1.03443    -0.59618
O      2.11268     2.04663    -0.01362
H      1.32503     1.64219     0.40237
O     -0.75080    -1.89923     0.29883
H      0.16769    -1.70452     0.57454
O     -0.57470    -1.91190    -1.12209
H     -0.86839    -1.01390    -1.37365
O     -0.92675     0.61578    -2.01917
H     -0.03290     0.85951    -2.32900
O     -1.47401     1.89552    -1.69418
H     -2.36268     1.61106    -1.44128
O     -0.12030     0.87235     0.83407
H     -0.79180     0.89260     0.12673
O     -0.89555     1.09317     2.02295
H     -0.80281     0.22313     2.44823
O      1.62699     1.34355    -2.55488
H      1.73868     1.95811    -1.80632
O      2.84634     0.60340    -2.44626
H      2.53007    -0.26892    -2.14454
O      1.85476    -1.36546     0.14584
H      2.30969    -0.50372     0.23073
O      2.05371    -1.67500    -1.24378
H      1.13806    -1.92575    -1.47330
O     -1.87420    -2.10041     2.99369
H     -1.53349    -2.61095     2.24513
O     -0.70674    -1.33683     3.30305
H     -0.61754    -1.47890     4.25105
O     -3.40506     0.88245     1.02157
H     -2.58569     1.11568     1.50022
O     -2.86090     0.07021    -0.03172
H     -2.56361    -0.72356     0.43595
