 20
-758.3085503214844
O     -1.67227    -2.23867     0.55440
H     -2.30311    -1.61913     0.94928
O     -1.42190    -1.58940    -0.69887
H     -0.52366    -1.23574    -0.57758
O      3.73953    -0.83485    -1.08962
H      2.78886    -0.89808    -1.26211
O      3.72285    -0.45985     0.29440
H      4.12248    -1.22599     0.71866
O     -0.60616     2.12934    -0.46817
H     -1.47765     1.76904    -0.72608
O     -0.73996     1.99652     0.96003
H      0.00055     1.38870     1.12734
O      1.16321     0.16681     0.70715
H      2.13608     0.10377     0.67921
O      0.88196    -0.05818    -0.68829
H      0.47763     0.80428    -0.89932
O     -2.80090     0.65178    -0.54744
H     -2.40552    -0.19610    -0.84069
O     -2.85096     0.36322     0.86660
H     -2.16634     0.98565     1.17093
