 32
-1213.313764896158
O      1.71268     1.25110     0.26218
H      1.86539     0.99258    -0.67479
O      1.25174     2.60336     0.13401
H      0.96670     2.74713     1.05701
O     -0.91439    -2.11530    -1.34851
H     -0.32414    -1.53228    -1.86994
O     -0.03699    -2.60999    -0.33725
H     -0.04113    -1.88434     0.32508
O     -1.25093     2.47736    -1.00060
H     -0.34776     2.56696    -0.65074
O     -1.29239     1.08755    -1.33384
H     -1.89975     0.71803    -0.67543
O     -0.85645     3.45311     2.74584
H     -0.58963     3.77765     3.61044
O      0.10075     2.41619     2.54673
H     -0.46941     1.63397     2.41830
O      0.55806    -0.25034    -2.55244
H      0.00102     0.44591    -2.13835
O      1.88073     0.11566    -2.14528
H      2.26009    -0.77314    -1.98758
O      3.22107    -2.34035    -0.25455
H      3.90082    -2.99055    -0.45565
O      2.39983    -2.44016    -1.41676
H      1.54514    -2.72344    -1.02421
O     -1.06620     0.08509     1.79058
H     -1.71589    -0.63609     1.70012
O      0.13534    -0.58148     1.38058
H      0.65460     0.14021     0.95265
O     -2.93748    -0.97536    -0.06057
H     -2.29283    -1.53167    -0.54559
O     -2.99864    -1.68909     1.17076
H     -3.93997    -1.65754     1.35599
