 24
-909.9714306451901
O      0.64919     1.97870     3.31610
H      0.76697     1.55202     4.16979
O      0.88762     0.87414     2.43581
H      0.10165     0.93445     1.85560
O      0.77157    -2.39720    -1.84013
H      1.42152    -1.87085    -1.35278
O      0.55516    -1.52620    -2.94875
H      0.72164    -2.11076    -3.69531
O      2.62419     0.70056     0.00436
H      2.36140     0.95154     0.90128
O      1.48040    -0.05086    -0.38898
H      0.97461     0.56907    -0.96548
O     -0.28277     1.43103    -1.75918
H     -0.80181     1.78764    -1.02637
O     -1.21169     0.46008    -2.26648
H     -0.59335    -0.21114    -2.58835
O     -1.20293    -1.64691     0.09988
H     -0.85427    -2.11175    -0.67926
O     -0.26123    -1.98034     1.11852
H      0.44686    -1.34006     0.94977
O     -1.25040     0.90564     0.81506
H     -1.45093    -0.00950     0.50842
O     -2.50483     1.34012     1.33035
H     -2.24955     1.60160     2.21876
