 20
-758.3034951612749
O      0.03836    -2.79940     1.05758
H      0.90896    -2.35807     0.93198
O     -0.41451    -2.86722    -0.29931
H     -0.08503    -3.72178    -0.59385
O     -0.49813    -0.46285    -1.43353
H     -0.35973    -1.33119    -0.99654
O      0.82857     0.08082    -1.48992
H      0.70863     0.85664    -0.92154
O     -0.17053     1.41237     0.88842
H     -1.03795     1.76249     0.60246
O      0.52388     2.58713     1.33058
H      0.75841     2.31484     2.22087
O      2.05260    -0.39312     1.36876
H      1.14163    -0.09259     1.25066
O      2.17912    -1.36015     0.33624
H      1.88402    -0.86742    -0.45376
O     -1.90024     1.85762    -1.51990
H     -1.57313     0.94211    -1.53671
O     -2.55655     1.85058    -0.24772
H     -3.20228     2.55261    -0.36290
