 36
-1364.9757806190826
O      2.02264     0.57047     0.73276
H      2.50264     1.39485     0.54381
O      3.00108    -0.42553     0.44388
H      2.61974    -0.84131    -0.34771
O     -2.57778    -0.57979    -1.52449
H     -1.94032    -0.02024    -1.99348
O     -2.08131    -1.90187    -1.73183
H     -1.10871    -1.78380    -1.68540
O     -2.10078    -2.79930     1.14471
H     -2.73115    -2.58770     1.83860
O     -2.85207    -3.60259     0.23513
H     -2.76393    -3.04957    -0.56058
O      1.61571    -2.07190    -1.24388
H      1.18061    -2.54070    -0.50390
O      0.50388    -1.36325    -1.79951
H      0.81092    -0.43072    -1.80601
O     -0.90418     0.46803     0.71594
H     -0.44487    -0.36288     0.97911
O     -2.27061     0.21758     1.01474
H     -2.54908    -0.13711     0.15051
O      0.09360     2.83635     1.55441
H     -0.39078     2.00064     1.38345
O     -0.92553     3.82475     1.42742
H     -0.93958     4.17912     2.32015
O     -0.46288     1.42494    -1.67294
H     -0.55349     1.13088    -0.74650
O      0.94012     1.24625    -1.88167
H      1.32141     2.04821    -1.46752
O      1.82695     3.34582    -0.39463
H      1.19443     3.34955     0.35743
O      3.03052     3.01187     0.29491
H      3.67305     3.57406    -0.14716
O      0.56586    -1.59241     1.50762
H      1.51438    -1.38620     1.53126
O      0.52849    -2.94408     1.03396
H     -0.44008    -3.07990     1.04274
