 40
-1516.6469350109342
O      0.90839     0.29282     2.47655
H      1.48932     1.00444     2.17513
O      0.40084    -0.16359     1.22426
H     -0.47811     0.27087     1.15503
O      2.57822    -0.07137    -0.77528
H      2.68262    -0.93763    -0.32520
O      1.59354    -0.35459    -1.76537
H      1.11299     0.49767    -1.83655
O     -0.01605     1.74483    -1.97215
H     -0.10124     2.28243    -1.15561
O     -1.35350     1.29551    -2.18107
H     -1.24771     0.31952    -2.19347
O     -2.55166    -0.21397     1.08291
H     -3.25714     0.33433     0.69818
O     -2.73001    -1.41766     0.33418
H     -2.24099    -2.06979     0.87135
O     -2.99483     2.28683    -0.35542
H     -2.45291     1.91872    -1.08657
O     -4.11402     1.40973    -0.39729
H     -4.83642     2.02376    -0.24104
O     -0.79695     2.36924     1.39487
H     -1.68812     2.54617     1.06554
O     -0.04195     3.05694     0.38397
H      0.87357     2.86135     0.66501
O      2.45829     2.09579     0.67180
H      2.48578     1.29098     0.09145
O      3.17893     3.03399    -0.11663
H      3.95516     3.16126     0.43404
O     -0.84157    -3.27698     0.81531
H     -0.54031    -3.11389    -0.10248
O      0.27984    -2.81595     1.56227
H      0.30159    -1.84304     1.41309
O      2.35789    -3.48263     0.05789
H      1.59296    -3.46587     0.67776
O      3.07400    -2.34618     0.53806
H      3.82852    -2.73979     0.98402
O     -1.27387    -1.38840    -1.91101
H     -1.84570    -1.41742    -1.11324
O     -0.21383    -2.27374    -1.55096
H      0.55151    -1.65799    -1.57002
