 20
-758.3100488109411
O      1.91663    -0.71820     0.84861
H      1.01184    -1.10774     0.76730
O      2.47672    -1.02083    -0.42907
H      2.81293    -1.91414    -0.30174
O     -0.53005    -1.63179     0.55759
H     -1.16476    -1.10025     0.03804
O     -0.97091    -1.38863     1.89071
H     -0.77727    -0.43700     1.97308
O     -0.44992     1.29808     1.70570
H     -0.97954     1.50480     0.91140
O      0.76653     1.99183     1.41638
H      1.36129     1.25416     1.21508
O      0.44004     0.92297    -2.25473
H      0.65097     1.08942    -3.17783
O      0.48883    -0.50476    -2.19304
H      1.22748    -0.63964    -1.56557
O     -2.24279     0.06904    -0.57140
H     -3.11030     0.23304    -0.18808
O     -1.72597     1.39850    -0.66890
H     -1.01658     1.27395    -1.32754
