 32
-1213.3054097958059
O      2.54715    -2.45106     0.23272
H      1.90670    -2.25237    -0.47882
O      3.61958    -1.58528    -0.16740
H      4.30601    -2.22566    -0.38414
O     -1.56957    -1.97657     0.53964
H     -1.10424    -1.30395     1.08679
O     -0.50874    -2.87108     0.20631
H     -0.70105    -3.62409     0.77315
O     -1.31358    -0.26402    -1.96991
H     -1.65623    -0.27456    -2.86852
O     -1.64390     1.05344    -1.53085
H     -2.41723     0.86836    -0.95580
O     -1.75770     2.81941     0.93013
H     -1.77411     3.58666     1.50988
O     -0.44272     2.33338     1.16865
H     -0.01055     2.41123     0.28180
O      2.25676     2.09158    -0.06190
H      2.01481     1.32814     0.48602
O      1.14408     2.17396    -0.94459
H      1.33526     1.45795    -1.58227
O      1.15012    -1.14188    -1.58428
H      0.26845    -0.71875    -1.57279
O      2.00052    -0.12101    -2.10597
H      2.77898    -0.28302    -1.55485
O     -0.15180    -0.20554     1.93346
H     -0.36273     0.73242     1.74939
O      1.25107    -0.20912     1.65318
H      1.41524    -1.13262     1.41680
O     -3.52242     0.13967     0.17499
H     -3.15452    -0.75640     0.16150
O     -3.13794     0.55684     1.48886
H     -2.64899     1.37229     1.27981
