 24
-909.9764121965517
O     -1.74908    -1.52396    -0.07019
H     -2.42072    -0.93261    -0.43352
O     -1.67027    -1.01270     1.26870
H     -0.77622    -1.29165     1.51665
O      0.52372    -1.09138    -1.43065
H     -0.27359    -1.29759    -0.90207
O      0.06943     0.02114    -2.21562
H      0.50028     0.74329    -1.72211
O      3.08857    -0.60606    -0.60839
H      2.16288    -0.74688    -0.88923
O      2.95791     0.40566     0.39329
H      2.75110    -0.10034     1.19217
O     -3.59112     1.07702    -1.75218
H     -3.76672     2.02228    -1.78423
O     -2.30833     1.06148    -1.12083
H     -1.72456     0.76733    -1.84271
O      1.33726    -0.21594     2.69806
H      0.69790     0.37747     2.27742
O      0.75660    -1.48765     2.42733
H      0.66852    -1.85478     3.31231
O      0.88103     1.82092    -0.41189
H      1.72991     1.43087    -0.09927
O      0.01260     1.51106     0.68577
H     -0.83105     1.40080     0.21813
