 16
-606.638910000793
O     -0.85544    -1.10075     1.33347
H     -0.94795    -1.60934     0.51705
O     -1.46323     0.14596     0.96232
H     -0.73798     0.76534     1.15676
O      0.74692     1.81449     1.00617
H      1.07862     1.43159     0.16902
O      1.69014     1.24349     1.92064
H      2.06529     2.03317     2.32173
O      1.31116     0.24113    -1.08665
H      0.46760    -0.05673    -1.46006
O      1.81326    -0.95868    -0.47990
H      1.76644    -0.72638     0.45767
O     -1.55023    -0.07881    -1.71928
H     -1.72355     0.11495    -0.77696
O     -1.85838    -1.48053    -1.74112
H     -2.59478    -1.49966    -2.35893
