 16
-606.6402406929459
O     -1.79219     0.33003    -0.04658
H     -1.15494     0.34552     0.69571
O     -2.66202    -0.73332     0.36091
H     -3.49249    -0.25844     0.46042
O      0.62781    -1.42636    -1.71426
H      0.76560    -1.29476    -0.76612
O      0.09289    -0.17270    -2.14443
H     -0.80810    -0.18902    -1.78397
O      2.15000     1.06316     0.22026
H      2.85437     1.71636     0.15958
O      1.09709     1.71476    -0.49482
H      0.89413     1.03857    -1.17069
O      0.19548     0.08732     1.76797
H      0.98715     0.49672     1.37116
O      0.47508    -1.30609     1.55841
H     -0.37781    -1.69541     1.77270
