 20
-758.3028605743625
O     -0.52163    -0.90259     2.64365
H     -1.13410    -0.75749     3.37226
O      0.38344     0.19351     2.75499
H      0.13493     0.72337     1.98170
O      2.78449     0.16857    -1.07631
H      3.37805     0.09148    -0.32269
O      1.86503    -0.90279    -0.82989
H      1.10623    -0.43146    -0.44567
O     -0.79845    -1.29546     0.05084
H     -0.72075    -1.27321     1.02664
O     -0.56911    -2.67817    -0.23899
H      0.30518    -2.61388    -0.64588
O      1.10076     2.35623    -0.25040
H      1.70268     1.77341    -0.73540
O      0.05501     1.42467     0.06446
H     -0.54459     1.49966    -0.70312
O     -2.42346     0.46937    -1.15772
H     -1.93402    -0.31218    -0.84269
O     -1.46991     0.99685    -2.09056
H     -2.04272     1.46426    -2.70631
