 40
-1516.6440753641548
O      3.43498     1.27778     1.49677
H      3.03548     0.38898     1.36357
O      3.40175     1.81936     0.17790
H      4.33612     1.79978    -0.05869
O      2.08513    -1.61230     0.08269
H      1.87274    -0.85479    -0.49710
O      2.00980    -1.01081     1.37497
H      1.07271    -0.73161     1.42913
O     -0.61787     2.66664    -0.51219
H     -1.15242     3.27974    -1.03200
O      0.70175     3.16670    -0.71567
H      0.93289     3.43440     0.18757
O      0.34180     0.56445    -2.35805
H     -0.40565     1.03290    -1.94695
O      1.24377     0.50322    -1.25600
H      1.62049     1.39772    -1.19604
O     -1.49332     0.01265     2.38173
H     -1.78514    -0.86849     2.05548
O     -0.36036     0.22965     1.54530
H     -0.02843     1.09123     1.85873
O      1.18613     3.75134     1.94287
H      0.78287     4.33926     2.58826
O      1.21507     2.51858     2.65185
H      2.13806     2.24973     2.50771
O     -2.44655     0.66396    -1.56371
H     -2.44749    -0.23111    -1.96175
O     -2.90664     0.39126    -0.24382
H     -2.12100     0.55091     0.30516
O     -2.20684    -2.30399     1.28168
H     -1.43743    -2.70767     0.82906
O     -3.13507    -2.20954     0.20030
H     -3.19536    -1.24102     0.10821
O     -0.00482    -4.08288    -1.21829
H     -0.14071    -3.46852    -1.95767
O     -0.10969    -3.14571    -0.14442
H      0.79783    -2.78499    -0.06478
O     -2.06183    -1.79708    -2.51456
H     -2.19414    -2.31250    -1.70157
O     -0.66395    -1.96334    -2.74412
H     -0.30354    -1.06805    -2.59964
