 36
-1364.9790050026647
O      1.58443     2.55114    -1.48277
H      0.87419     2.19856    -2.04076
O      1.23997     1.92908    -0.24885
H      2.07837     1.48896    -0.01161
O     -3.16384    -0.53753    -0.24228
H     -2.91902    -0.42582    -1.17609
O     -1.91932    -0.99663     0.26804
H     -1.54436    -0.20810     0.70628
O      0.05108    -1.57877    -1.79301
H      0.15893    -2.24955    -1.08368
O      0.99772    -0.58342    -1.41740
H      0.42040     0.08050    -0.99817
O     -0.98709     1.19518    -2.07342
H     -1.55929     1.67422    -1.44663
O     -1.86222     0.15643    -2.52889
H     -1.22619    -0.58026    -2.52166
O      3.52441     0.59006     0.16647
H      4.30250     0.80463    -0.35998
O      3.30708    -0.78177    -0.15586
H      2.51785    -0.71912    -0.73891
O     -0.31710     2.14321     1.88099
H      0.14452     2.40550     1.06289
O     -0.49107     0.75269     1.63963
H      0.32871     0.34205     1.97312
O     -2.87097     3.19093     0.71062
H     -2.20571     2.85598     1.32744
O     -2.75213     2.27098    -0.37505
H     -3.38513     1.56501    -0.16411
O      1.24875    -1.42023     2.46230
H      0.45635    -1.98081     2.37798
O      2.17381    -2.29208     1.80446
H      2.68962    -1.66511     1.27212
O      0.36183    -3.38156     0.21850
H      1.21350    -3.27300     0.68150
O     -0.51904    -3.00747     1.28456
H     -1.11637    -2.38040     0.83657
