 24
-909.974029776182
O     -1.80771    -0.83421     0.61452
H     -2.33499    -0.14520     0.18277
O     -0.99054    -0.04243     1.49503
H     -0.29089    -0.69516     1.70786
O      0.12125    -1.60651    -1.14579
H     -0.60021    -1.39511    -0.52114
O      0.21369    -0.43495    -1.96940
H     -0.71457    -0.23966    -2.19735
O      2.68097    -0.52865     0.17829
H      1.97918    -0.95094    -0.34342
O      2.01152     0.65336     0.62846
H      2.59253     1.35410     0.31025
O     -2.26521     0.50464    -2.41174
H     -2.47387     1.14670    -3.09810
O     -2.49623     1.24844    -1.21117
H     -1.63213     1.71488    -1.09983
O      1.88930    -1.79184     2.66693
H      2.49139    -1.56326     1.94661
O      0.70436    -2.04758     1.90650
H      0.51596    -2.97440     2.09131
O     -0.06598     2.17981    -0.86329
H      0.43120     1.34556    -0.76317
O     -0.21406     2.67684     0.45745
H     -0.48876     1.88533     0.94706
