 36
-1364.9838366168824
O      0.50635     1.77275    -0.04204
H      0.65333     1.03611     0.57635
O     -0.89525     2.02621     0.03854
H     -1.16616     1.89331    -0.88806
O     -1.99858     1.01525    -2.17382
H     -2.53756     0.40012    -1.65515
O     -1.12004     0.11910    -2.85973
H     -0.34016     0.69755    -3.01982
O      2.24239     0.60508     1.90864
H      2.83978     0.99772     1.24516
O      1.92387    -0.62327     1.26597
H      1.35010    -1.06564     1.92534
O      1.14401     1.48694    -2.58509
H      1.14213     1.66306    -1.62366
O      2.17541     0.51318    -2.73688
H      1.78758    -0.26672    -2.29210
O     -3.18281    -2.01275     1.91119
H     -2.37732    -2.49057     1.63473
O     -2.61152    -1.25045     2.99112
H     -2.67636    -0.36232     2.59360
O     -2.91809     0.75496     1.30997
H     -2.19229     1.26300     0.90609
O     -3.39879     0.01683     0.17530
H     -3.55677    -0.84317     0.60924
O      3.44606     1.90469    -0.14297
H      4.00083     2.68941    -0.09106
O      4.21983     1.03376    -0.96780
H      3.65283     0.98903    -1.75910
O      1.20503    -1.39996    -1.12405
H      1.60957    -1.08743    -0.28835
O     -0.17156    -1.25428    -0.75237
H     -0.54629    -0.87928    -1.58015
O     -0.06803    -1.88549     2.53228
H     -0.86863    -1.61399     3.02167
O     -0.67763    -2.66193     1.49071
H     -0.43158    -2.15350     0.69190
