 28
-1061.6447519962655
O      0.75772     0.21114     1.74324
H      0.49140    -0.56753     1.21088
O      2.09570    -0.08069     2.14203
H      2.56248     0.47996     1.50582
O      2.31966    -1.21215    -1.65319
H      2.94180    -1.48037    -2.33663
O      1.07839    -1.67915    -2.17098
H      0.63334    -0.82598    -2.35798
O     -3.11052    -0.17571     0.84472
H     -2.62155     0.56406     1.26633
O     -2.81003    -1.25385     1.73334
H     -1.41871    -1.75622     0.73311
O     -1.41114     1.73961     1.64895
H     -0.60534     1.22911     1.86972
O     -0.97867     2.45666     0.49083
H     -1.26818     1.87581    -0.23594
O     -0.09236     0.73161    -2.31900
H      0.48601     1.35226    -1.82622
O     -1.26985     0.70232    -1.51349
H     -1.17449    -0.16131    -1.07811
O     -0.01367    -2.93438     0.18566
H      0.33252    -2.89377    -0.71358
O     -0.58131    -1.62272     0.24507
H     -3.68951    -1.57359     1.95644
O      1.60038     2.05076    -0.74373
H      1.05525     2.22211     0.04229
O      2.53831     1.09330    -0.25850
H      2.35439     0.31639    -0.81236
