 32
-1213.3103378769358
O      0.71479     2.94843     1.96440
H      1.32052     2.27916     2.31094
O      0.21379     2.24968     0.83078
H     -0.75327     2.21542     1.00513
O     -0.37556    -2.03149    -1.15821
H      0.48418    -2.49567    -1.21493
O     -0.47406    -1.43228    -2.45081
H     -1.24982    -0.84929    -2.29273
O     -1.70627     1.46311    -2.34579
H     -0.76086     1.45517    -2.09965
O     -2.20731     0.36478    -1.58420
H     -2.71175     0.79492    -0.87637
O     -0.88524    -0.54324     0.98042
H     -0.74488    -1.07123     0.15838
O     -0.99219    -1.55161     1.98296
H     -0.06637    -1.53441     2.28604
O      0.91108     1.46188    -1.64693
H      0.85441     1.71760    -0.70780
O      1.46317     0.14942    -1.55837
H      0.82568    -0.37113    -2.09127
O      2.89509    -1.99345    -0.45367
H      2.51449    -1.16288    -0.79759
O      2.12308    -2.96096    -1.16066
H      2.69973    -3.20682    -1.89244
O      1.65635    -1.24693     2.15342
H      2.11746    -1.75276     1.46825
O      1.85457     0.10251     1.71195
H      0.99014     0.29327     1.30607
O     -3.00764     0.94919     1.15496
H     -2.23722     0.34606     1.27427
O     -2.38284     2.20769     1.41572
H     -2.75011     2.46199     2.26863
