 32
-1213.3106651662017
O      4.20301    -0.95796     1.63908
H      4.80880    -1.63933     1.33305
O      3.22096    -1.74441     2.32582
H      2.47246    -1.12291     2.30505
O      0.26341    -1.89510    -0.19873
H      0.08714    -1.74950     0.75386
O     -0.95041    -1.43265    -0.80992
H     -0.61364    -0.88496    -1.55150
O     -2.22331     2.14713    -2.16006
H     -1.89131     2.40813    -1.28368
O     -2.75522     0.85022    -1.87020
H     -3.70808     0.98338    -1.95380
O     -0.17552     1.55822     0.57820
H      0.16014     1.53711    -0.34780
O     -1.36625     2.33540     0.49483
H     -2.01457     1.66482     0.74905
O     -0.14056     0.32396    -2.66494
H     -0.83684     0.92708    -2.95925
O      0.70610     1.23737    -1.94369
H      1.51918     0.69446    -1.85099
O      2.69988     0.42394    -0.09578
H      3.35266    -0.02869     0.47453
O      2.45213    -0.57169    -1.09118
H      1.76490    -1.12444    -0.67101
O     -0.11572    -1.12233     2.33003
H     -0.88907    -0.54361     2.24676
O      0.97469    -0.22046     2.15896
H      0.62571     0.44824     1.52701
O     -2.55187    -0.31971     0.97180
H     -2.08615    -0.75836     0.22237
O     -3.92257    -0.54638     0.66752
H     -4.17952    -1.11393     1.40054
