 24
-339.608478231365
N     -1.39637    -3.27384     0.71980
H     -1.13920    -2.33213     0.98502
H     -0.63651    -3.86287     1.03356
H     -1.36855    -3.28359    -0.29132
N      0.41123     0.19828     1.47984
H     -0.59288     0.17419     1.60363
H      0.67283    -0.42252     0.71877
H      0.82986    -0.15616     2.32812
N      2.04283    -1.04898    -0.92612
H      2.87630    -1.35434    -0.43918
H      2.11590    -1.39612    -1.87358
H      2.07293    -0.03082    -0.95886
N     -0.20307     3.00179    -2.68208
H      0.01273     2.85061    -3.65872
H      0.11539     2.18095    -2.18210
H     -1.21012     3.03237    -2.58840
N     -2.98114    -0.74841     2.06508
H     -3.27818    -0.71694     3.03131
H     -3.69194    -0.27903     1.51965
H     -2.98838    -1.72251     1.78463
N      2.05060     1.96125    -0.48302
H      2.97056     2.24174    -0.16374
H      1.59726     2.80038    -0.82283
H      1.53253     1.62342     0.32672
