 24
-339.61330256922105
N      1.70768    -1.38855     0.43925
H      1.28971    -0.94930    -0.37123
H      2.38806    -2.05924     0.11064
H      0.95323    -1.89531     0.88044
N     -1.28897    -1.02493     1.72505
H     -2.09652    -0.93204     2.33071
H     -0.47816    -1.07507     2.33229
H     -1.17525    -0.14311     1.20772
N     -1.15600    -1.99792    -1.36526
H     -1.29692    -1.83259    -0.37060
H     -1.88722    -2.62456    -1.67374
H     -0.28607    -2.50753    -1.45185
N     -1.21299     1.12445    -2.79680
H     -2.10981     1.16864    -3.26180
H     -0.50370     1.05638    -3.51417
H     -1.19234     0.25384    -2.27421
N     -0.77696     1.60620     0.46990
H     -1.40816     2.24174     0.94106
H      0.16174     1.88718     0.73932
H     -0.87352     1.78423    -0.52511
N      2.57966     1.73446     1.53898
H      2.88869     1.78037     2.50055
H      2.45376     0.75444     1.30809
H      3.32588     2.08920     0.95576
