 40
-566.0356651936637
N     -1.88438     0.60303    -2.40075
H     -0.89783     0.40256    -2.52335
H     -1.93680     1.40726    -1.78787
H     -2.24564     0.89381    -3.29818
N     -2.79490     1.21758     0.88959
H     -3.63535     1.22914     1.44959
H     -2.57165     2.17542     0.63128
H     -3.01259     0.72188     0.03321
N      0.84878     1.80959    -0.43544
H      0.91520     1.26223    -1.28611
H      1.77502     2.15819    -0.23559
H      0.62119     1.15848     0.31009
N      3.20710    -1.88328     0.18507
H      3.16662    -1.09076     0.83665
H      3.93984    -2.51021     0.49705
H      3.50032    -1.51951    -0.71454
N      2.94654     0.48349     1.96633
H      3.08104     1.36518     1.48655
H      1.93761     0.40658     2.16931
H      3.44364     0.55496     2.84568
N      0.09854     0.00331     2.34430
H     -0.68879     0.48715     1.91840
H      0.13309    -0.94009     1.93482
H     -0.11789    -0.09045     3.32973
N      0.33936    -2.66074     1.08664
H      1.30339    -2.58976     0.75959
H      0.26430    -3.48028     1.67655
H     -0.25654    -2.81126     0.27811
N     -2.40978    -2.29821    -0.83693
H     -2.22469    -1.97450     0.10373
H     -2.47207    -1.46614    -1.41457
H     -3.31634    -2.74307    -0.83308
N     -1.32920     3.85122    -0.38925
H     -0.57636     3.15963    -0.40128
H     -1.27082     4.37892    -1.25254
H     -1.11782     4.50086     0.35992
N      0.90226    -1.13126    -2.23702
H      1.34412    -1.70770    -2.93597
H     -0.02761    -1.50805    -2.10384
H      1.38530    -1.29859    -1.36426
