 28
-396.2214129227116
N      0.51816    -1.96219     1.31423
H      0.83893    -2.88338     1.57506
H     -0.39289    -2.05610     0.87936
H      1.14122    -1.60150     0.60230
N     -0.43001     0.51336    -2.68539
H     -1.21123     0.73341    -2.08278
H      0.38802     0.86419    -2.19880
H     -0.53876     1.06597    -3.52345
N      1.98036    -1.53723    -1.78952
H      2.65729    -1.82887    -2.48000
H      1.58916    -2.37626    -1.38153
H      1.21250    -1.08212    -2.27566
N      1.69373     1.53916    -0.20368
H      2.22669     0.70277    -0.40962
H      2.35221     2.27898    -0.00528
H      1.18093     1.35446     0.64864
N     -2.44399    -1.33669    -0.37967
H     -3.44133    -1.47189    -0.46043
H     -2.29215    -0.40957     0.00411
H     -2.05821    -1.31878    -1.31399
N     -1.60073     1.94057     0.36373
H     -1.32803     1.81064     1.33035
H     -0.74758     2.15725    -0.13687
H     -2.18785     2.76025     0.32371
N      0.15289     0.81127     3.25794
H      1.03475     0.97021     3.72836
H     -0.54779     0.68666     3.97705
H      0.23138    -0.07689     2.76912
