 24
-339.60651361378694
N      0.92059    -2.11659     1.83990
H      0.33479    -2.93818     1.88625
H      0.34645    -1.33510     1.55407
H      1.59702    -2.25173     1.10167
N      1.34650     2.75688     0.83019
H      0.40362     2.60946     0.47604
H      1.27168     2.87118     1.83527
H      1.66892     3.64428     0.46192
N      0.46047    -0.68205    -1.19128
H      0.64974    -0.76073    -2.18459
H      1.36150    -0.59149    -0.71546
H      0.05878    -1.56629    -0.90297
N     -1.25966     1.84916    -0.54753
H     -0.63127     1.05447    -0.66875
H     -2.17949     1.48251    -0.33551
H     -1.32528     2.31303    -1.44560
N     -4.53921    -1.63090    -1.16964
H     -3.60497    -1.51019    -1.53628
H     -4.48202    -2.27781    -0.39345
H     -5.09851    -2.06157    -1.89489
N      3.03756    -0.01344     0.34351
H      3.01361    -0.31363     1.31083
H      4.00292     0.17044     0.10524
H      2.53635     0.87445     0.31187
