 32
-452.82461489269684
N     -2.42563     0.57444    -1.22943
H     -3.32653     1.01351    -1.37377
H     -2.40605    -0.26570    -1.79688
H     -2.38916     0.27412    -0.26021
N     -0.14019     2.36987    -1.73795
H      0.05324     2.41194    -2.73252
H     -0.91453     1.71355    -1.59439
H     -0.49680     3.28738    -1.48981
N     -1.84280     0.07252     2.09688
H     -2.64791     0.66317     2.27870
H     -1.63669    -0.40047     2.97116
H     -1.05057     0.69384     1.89320
N      0.38907     1.90398     1.54578
H      0.45524     2.08586     0.54755
H      0.32210     2.79742     2.01665
H      1.26516     1.48041     1.83672
N      1.95946    -0.72133    -0.90819
H      1.43592     0.12710    -1.08310
H      2.53445    -0.88951    -1.72101
H      1.27830    -1.46525    -0.85832
N     -1.17802    -2.31066    -2.55203
H     -1.09696    -2.56350    -1.57196
H     -1.00681    -3.13733    -3.10790
H     -0.42820    -1.65684    -2.73174
N     -0.42080    -2.45871     0.74860
H     -0.62111    -3.23589     1.36387
H      0.52693    -2.16482     0.94587
H     -1.00647    -1.67901     1.04117
N      3.46301     0.25596     1.98053
H      3.74010    -0.48566     2.60957
H      4.29548     0.77246     1.72828
H      3.10710    -0.17342     1.13246
