 40
-566.036302463275
N     -2.46972    -2.48993    -1.42160
H     -2.09132    -2.38526    -2.35804
H     -2.85255    -1.57851    -1.14350
H     -3.24640    -3.13619    -1.50215
N     -0.95893    -0.96323     1.12791
H      0.05129    -0.96508     1.05473
H     -1.26616    -1.92229     1.03631
H     -1.27138    -0.50206     0.28320
N     -1.47617     2.19403    -1.19663
H     -0.95644     1.79534    -1.97530
H     -1.84728     3.08020    -1.51222
H     -0.79606     2.40657    -0.47717
N      2.15791     2.42114     0.20316
H      2.48163     3.36448     0.03645
H      1.35891     2.46389     0.83223
H      2.89387     1.94592     0.70951
N      1.40429    -0.61404     3.18955
H      1.69649    -1.01633     4.06632
H      0.42566    -0.83081     3.05200
H      1.91660    -1.07018     2.44719
N     -0.10115     2.19688     2.12998
H     -0.86555     1.60658     1.82479
H      0.56381     1.56731     2.57278
H     -0.46376     2.81474     2.84394
N      2.88290    -0.94428     0.06807
H      2.56239    -1.44799    -0.74957
H      2.57564     0.01181    -0.06581
H      3.89102    -0.94294     0.03926
N      0.63765    -2.80905    -1.23432
H      1.02463    -2.64995    -0.31281
H     -0.36218    -2.63661    -1.14837
H      0.74666    -3.79728    -1.42822
N     -3.50778     0.11556    -0.49610
H     -2.87442     0.86584    -0.78769
H     -4.45165     0.37410    -0.76111
H     -3.47811     0.09165     0.51793
N      1.03760     0.74211    -2.69223
H      1.77908     0.81651    -3.37097
H      0.96394    -0.23125    -2.43316
H      1.33938     1.24029    -1.86185
