 24
-339.60291923825264
N     -0.44275    -0.57552     0.78549
H     -0.45394    -1.41711     0.21745
H     -1.40555    -0.31134     0.96106
H     -0.03792     0.17140     0.23038
N      2.48588     3.16059    -0.38639
H      2.50387     4.03288     0.12535
H      2.43310     2.40791     0.29478
H      3.37030     3.07207    -0.86923
N     -0.40040    -3.33949    -0.57458
H     -1.25521    -3.73343    -0.19798
H     -0.34894    -3.61329    -1.55083
H      0.36702    -3.79387    -0.09200
N     -4.19042     2.29504     1.85332
H     -4.45774     3.03620     1.21804
H     -4.67303     2.44844     2.72948
H     -3.20036     2.39574     2.03306
N     -0.00039    -2.60244    -3.72627
H      0.89928    -2.50059    -4.17637
H     -0.70672    -2.24676    -4.35627
H      0.00399    -1.99950    -2.91467
N      2.26238     0.62090     1.84053
H      1.43644     0.05293     1.67265
H      3.06044    -0.00260     1.80746
H      2.19638     0.95711     2.79414
