 24
-339.6122629315241
N      2.33200    -1.41348    -0.79243
H      2.73461    -0.52378    -1.06703
H      2.43154    -1.48346     0.21865
H      2.90664    -2.13445    -1.21357
N     -1.19783     3.93324    -0.27864
H     -1.81207     4.52852     0.26437
H     -1.43980     2.97125    -0.06254
H     -0.25324     4.08625     0.05518
N     -0.43535    -1.56095    -1.83307
H      0.49023    -1.51601    -1.38618
H     -0.64424    -2.53877    -2.00558
H     -0.32957    -1.13694    -2.75079
N     -2.08761     1.01860    -1.01632
H     -1.49176     0.21216    -1.19462
H     -3.03099     0.74700    -1.26427
H     -1.81874     1.75165    -1.66113
N     -0.79493    -0.76570     1.46744
H     -0.98562    -1.35884     0.66715
H     -1.38432    -1.08102     2.22730
H     -1.11215     0.15933     1.20043
N      2.07327    -1.39119     2.29386
H      1.94962    -2.27289     2.77826
H      2.37218    -0.70809     2.98021
H      1.15056    -1.10835     1.95789
