 24
-339.6120294632212
N      1.12432    -0.31215     3.88158
H      1.66845     0.51138     4.10137
H      1.29652    -0.99150     4.61051
H      1.48634    -0.69793     3.01507
N     -1.88910     0.91422     0.08358
H     -1.45666     1.69321    -0.40998
H     -2.75805     1.23860     0.49256
H     -1.27734     0.69812     0.86448
N     -0.51097     0.07220    -2.95376
H     -0.72179    -0.24293    -3.88982
H     -0.07277    -0.69408    -2.46003
H     -1.38904     0.24914    -2.48299
N     -0.35174     2.88528    -1.71648
H     -0.58403     3.60852    -2.38651
H      0.53955     3.13548    -1.30401
H     -0.21310     2.01815    -2.23126
N     -0.73495    -2.00867    -0.22958
H     -0.52538    -2.13743     0.75309
H     -1.22153    -1.11551    -0.31080
H     -1.38809    -2.74111    -0.47742
N      2.19682    -1.63973     0.92278
H      1.41181    -1.65828     0.28158
H      2.87457    -0.99131     0.54073
H      2.62105    -2.55837     0.90521
