 24
-339.6096676592088
N      2.40289    -1.63984     2.43598
H      1.39420    -1.58282     2.31545
H      2.72060    -2.41875     1.87400
H      2.57138    -1.88046     3.40428
N     -0.98353    -1.38416     2.24130
H     -1.41981    -2.29316     2.14264
H     -1.45668    -0.92523     3.01007
H     -1.20001    -0.84838     1.40449
N     -1.44049    -1.08662    -2.73891
H     -1.46302    -0.96080    -1.73299
H     -2.37144    -1.35673    -3.02707
H     -0.82390    -1.86647    -2.92483
N     -0.32673     2.00130    -3.40858
H      0.38873     2.03591    -2.69180
H     -0.64527     1.03680    -3.44810
H      0.11749     2.22279    -4.29059
N     -1.27865     0.76311     0.05612
H     -1.85928     1.42590     0.55781
H     -0.33158     0.87812     0.41323
H     -1.28596     1.06369    -0.91014
N      1.65279     1.32539     1.21424
H      2.33015     0.65828     0.86510
H      2.11804     2.21965     1.28804
H      1.46388     1.01274     2.15983
