 36
-509.4281472388892
N     -2.32706    -1.53581    -3.61710
H     -2.04894    -1.51627    -4.59170
H     -3.32612    -1.36724    -3.59114
H     -1.88394    -0.73083    -3.16819
N      1.50767     2.34461     3.60882
H      2.45879     2.28610     3.94805
H      1.17650     3.28700     3.76594
H      1.53978     2.19805     2.60557
N     -0.43541    -1.99130    -0.99675
H     -0.94052    -1.19725    -0.62097
H     -0.38630    -2.67265    -0.25221
H     -1.00531    -2.37249    -1.74587
N      1.77657    -1.85910     1.34079
H      2.75087    -1.90445     1.59853
H      1.68160    -2.20946     0.40059
H      1.53034    -0.87817     1.30081
N     -2.19992     0.97664     0.76339
H     -2.46218     1.84306     1.22117
H     -1.59140     0.48280     1.42355
H     -3.05746     0.43713     0.68340
N      1.37343     1.85994     0.23070
H      1.80033     1.19818    -0.40697
H      0.37595     1.70080     0.17368
H      1.54480     2.78119    -0.14799
N     -1.11837     0.93631    -2.40444
H     -1.48366     1.16942    -1.48475
H     -0.10791     0.92152    -2.32991
H     -1.36186     1.69498    -3.02798
N     -0.59367    -0.33561     2.87356
H     -0.04621     0.37194     3.35623
H      0.02149    -1.12455     2.70059
H     -1.29612    -0.64822     3.53180
N      2.01006    -0.64814    -1.94516
H      2.73284    -1.08575    -1.38517
H      1.12903    -1.11442    -1.69372
H      2.21495    -0.88678    -2.90819
