 40
-566.0381467636447
N     -1.73804    -0.14115     2.08836
H     -1.72493    -1.07430     1.68944
H     -0.77534     0.05358     2.33395
H     -2.27158    -0.18567     2.94322
N      1.65905    -1.32086     1.92784
H      2.28698    -2.06539     2.20592
H      2.01917    -0.93118     1.05967
H      1.75516    -0.58992     2.62538
N      1.57796     1.70388     3.60322
H      1.02886     2.15015     2.87437
H      1.07947     1.83530     4.47298
H      2.44251     2.22330     3.68123
N     -1.83304    -2.44218    -2.18661
H     -1.95538    -2.57657    -1.18952
H     -2.29152    -1.56202    -2.39581
H     -2.34729    -3.17646    -2.65330
N     -0.64516    -3.04099     0.97738
H     -0.36424    -3.28170     0.03654
H      0.05877    -2.38362     1.32130
H     -0.56854    -3.88662     1.52779
N     -0.28727     2.52263     0.86513
H      0.01509     2.41010    -0.09379
H     -0.97616     1.79682     1.03358
H     -0.77234     3.40729     0.89853
N      1.09479    -0.94791    -2.90923
H      1.63202    -1.28785    -3.69167
H      1.65672    -1.06205    -2.07718
H      0.29056    -1.55651    -2.80167
N     -2.21965     0.56357    -1.33861
H     -1.33284     0.08557    -1.44522
H     -1.99567     1.54665    -1.37678
H     -2.51049     0.37921    -0.38686
N      2.37482     0.67323    -0.27549
H      3.21379     1.23226    -0.28120
H      1.88877     0.84216    -1.14623
H      1.77488     1.04344     0.45048
N     -0.05976     2.28323    -2.87864
H     -1.03043     2.28506    -3.15814
H      0.28297     1.35307    -3.09544
H      0.42741     2.93966    -3.46881
