 28
-396.2176432897655
N      1.85810    -0.04018     0.08491
H      1.74570    -0.43085    -0.85105
H      2.55148    -0.59878     0.56981
H      0.97752    -0.21820     0.55507
N      2.58031     2.92775     0.24197
H      2.63156     3.30099    -0.69852
H      3.51629     2.96318     0.62781
H      2.32687     1.94364     0.15647
N     -2.55361    -1.64618     1.30051
H     -3.55471    -1.53076     1.19793
H     -2.32694    -1.40877     2.25987
H     -2.10799    -0.94587     0.70147
N     -0.35758     2.81131     1.81957
H     -0.80674     3.70910     1.94862
H     -0.13251     2.46429     2.74389
H      0.53409     2.99296     1.36140
N     -0.59416    -3.25549    -0.51742
H     -1.15696    -3.74938    -1.20059
H     -0.00095    -3.94865    -0.07636
H     -1.23606    -2.89806     0.18628
N     -1.46413     0.53339    -0.46312
H     -0.60909     0.47779    -1.00327
H     -2.18989     0.85719    -1.09095
H     -1.31470     1.27663     0.21671
N      0.59241    -1.29174    -2.40074
H      0.20710    -1.90533    -1.67188
H     -0.20026    -0.83054    -2.83217
H      1.01240    -1.87694    -3.11336
