 36
-509.42678196564486
N     -1.73826     1.13020    -2.26994
H     -1.17547     0.29469    -2.39367
H     -2.51338     0.88971    -1.66014
H     -2.11351     1.36990    -3.17611
N      0.97679    -2.71961     1.27260
H      1.37973    -1.82909     1.58985
H      0.46524    -3.12412     2.05057
H      1.75029    -3.34747     1.08631
N      1.99597    -0.42169    -1.41266
H      2.20129    -0.69612    -0.45927
H      1.26419    -1.04002    -1.75193
H      2.81959    -0.59875    -1.96704
N      2.42792    -0.27183     2.17904
H      2.54480    -0.35327     3.18564
H      3.37235    -0.18403     1.81294
H      1.95084     0.63233     1.99289
N     -3.82117    -0.14886     0.09018
H     -2.93559     0.01029     0.57022
H     -4.46246     0.56798     0.40764
H     -4.18667    -1.03017     0.43030
N     -0.94747     0.05792     1.05681
H     -0.46400     0.33647     1.89741
H     -0.77200    -0.93580     0.94761
H     -0.50086     0.53733     0.28500
N      0.70629     2.24550    -1.13906
H     -0.23146     2.08728    -1.51359
H      1.12087     3.01236    -1.66112
H      1.23809     1.39758    -1.35967
N      1.16908     2.29648     1.69343
H      0.98848     2.34454     0.66930
H      0.27210     2.45023     2.14317
H      1.74800     3.08861     1.95020
N     -0.85566    -2.07557    -1.57238
H     -1.66895    -1.56365    -1.25655
H     -1.18199    -2.97302    -1.89880
H     -0.27782    -2.23897    -0.75231
