 12
-169.79740966251978
N      0.55128     2.91791     0.00291
H      0.15573     3.14954     0.90602
H     -0.16025     3.10473    -0.69319
H      0.72623     1.91557    -0.00292
N      1.23330    -0.37702    -0.00914
H      1.74975    -0.61417    -0.84507
H      1.79188    -0.65950     0.78423
H      0.39047    -0.93955    -0.00304
N     -1.67727    -2.41668    -0.00154
H     -2.18363    -2.29659    -0.86842
H     -1.49553    -3.40533     0.10700
H     -2.29563    -2.13965     0.74884
