 28
-396.21626478677314
N      1.74689    -0.29927    -0.77247
H      1.46769    -0.14357     0.18882
H      1.47491    -1.25077    -1.00584
H      2.75670    -0.26413    -0.80037
N      0.21832     1.71976    -2.31045
H      0.79464     2.08556    -3.05884
H      0.74744     0.98312    -1.82117
H     -0.58299     1.27509    -2.74458
N     -0.33924    -1.80796     2.08470
H      0.45349    -2.23459     2.55143
H     -0.16406    -0.79980     2.07528
H     -1.14520    -1.98149     2.67508
N     -0.58981     2.97768     0.33491
H     -1.60355     3.01777     0.32078
H     -0.26722     3.92386     0.50067
H     -0.28408     2.70233    -0.60185
N      0.15241    -3.14449    -0.81620
H     -0.71835    -3.08180    -1.32877
H      0.32402    -4.12467    -0.63383
H     -0.00885    -2.68660     0.08102
N      0.49892     1.09372     2.28920
H      1.49262     1.28657     2.36788
H      0.11455     1.75299     1.59965
H      0.09682     1.33442     3.18960
N     -1.70274    -0.56207    -0.99998
H     -0.85879    -0.84566    -1.47595
H     -1.55084     0.39788    -0.72080
H     -1.73991    -1.10395    -0.14856
