 36
-509.42829603680485
N     -0.61106     2.30810    -2.18979
H     -0.22636     1.46424    -2.60412
H     -1.61658     2.18231    -2.18880
H     -0.40330     3.06999    -2.81870
N      3.30584     1.07115     2.02611
H      3.96116     0.29884     2.02188
H      2.58908     0.85923     1.32880
H      3.80525     1.88953     1.69901
N      0.49712    -2.94908    -0.81309
H      1.32755    -3.51194    -0.65761
H      0.21791    -2.56419     0.09621
H     -0.23489    -3.60128    -1.07945
N      0.64325     1.10285     3.58290
H      0.65562     0.78836     4.54503
H      1.60430     1.12714     3.25305
H      0.31957     2.06377     3.60394
N     -3.05545     0.22537    -1.85739
H     -3.80551    -0.25786    -2.32757
H     -2.18749    -0.07092    -2.28307
H     -3.01524    -0.11781    -0.90852
N     -0.49635    -1.89593     1.75591
H     -1.17831    -1.17865     1.50618
H     -0.97901    -2.62219     2.27312
H      0.13588    -1.44004     2.40499
N     -1.64038     0.81031     1.20649
H     -2.32263     1.30833     1.76131
H     -0.75410     0.89840     1.69737
H     -1.54775     1.30286     0.32638
N      1.40043     0.46958    -0.23677
H      0.96656     1.30734    -0.61656
H      0.65498    -0.18301    -0.03448
H      1.94185     0.05570    -0.98458
N      0.23190    -0.90015    -3.33189
H     -0.50063    -1.38012    -3.83906
H      1.06617    -0.97027    -3.89976
H      0.39286    -1.43383    -2.48057
