 24
-339.6126177827649
N     -0.32079    -2.80854     0.57983
H      0.12932    -3.70906     0.67810
H     -1.31772    -2.97711     0.54825
H     -0.05731    -2.44768    -0.33108
N      1.18091     1.75635     0.22885
H      1.66013     1.18662    -0.45951
H      1.86829     2.42150     0.56808
H      0.95063     1.12443     1.00655
N     -0.28567     1.17165    -2.46400
H     -1.28911     1.02338    -2.47608
H     -0.04772     1.45145    -1.51705
H     -0.10111     1.96642    -3.06364
N      0.44412    -2.05558    -2.75198
H     -0.19869    -2.39707    -3.45532
H      0.31751    -1.04901    -2.69691
H      1.38049    -2.22237    -3.09784
N     -1.69467     2.05780     2.00673
H     -1.45469     1.15734     1.61221
H     -2.65489     2.24854     1.75509
H     -1.10923     2.71356     1.50498
N      0.70016    -0.14770     2.42662
H      1.57584    -0.29900     2.91231
H      0.39679    -1.04838     2.06519
H      0.02306     0.16836     3.11145
