 24
-339.61258555362883
N     -0.19568    -1.96421     3.07176
H     -0.24656    -1.70996     4.04928
H      0.36059    -2.80622     3.00354
H      0.31848    -1.22980     2.59996
N      0.48247     1.01498     1.30594
H      0.70360     1.33451     0.36616
H     -0.52909     0.96314     1.34955
H      0.77087     1.74534     1.94207
N      0.89654     1.58023    -2.06741
H      1.28201     2.30263    -2.65822
H      1.30090     0.69994    -2.36040
H     -0.09640     1.52870    -2.26920
N     -1.82196    -1.16923     0.15620
H     -1.96861    -1.91215    -0.51540
H     -0.83977    -0.92783     0.09965
H     -1.95627    -1.56936     1.07666
N     -2.55166     1.11403    -2.25657
H     -3.15357     1.87923    -1.98332
H     -2.48844     0.48692    -1.46191
H     -3.01530     0.61126    -3.00165
N      3.01161    -0.52027    -0.53161
H      2.95088     0.46978    -0.73063
H      2.32732    -0.68896     0.19326
H      3.92518    -0.69511    -0.13835
