 36
-509.4253448842684
N      1.44060     0.12211    -2.21106
H      1.71035     0.30651    -3.16896
H      0.88144    -0.72870    -2.21564
H      0.82403     0.87810    -1.92439
N      0.88294     2.32592     0.98127
H      1.79780     1.94726     0.76000
H      0.44107     2.57522     0.10420
H      1.05338     3.18418     1.48870
N      3.77878     0.21478    -0.34718
H      4.32044    -0.63922    -0.42676
H      2.98027     0.11653    -0.97426
H      4.35783     0.95844    -0.71865
N      2.86528     0.39415     2.88700
H      1.90382     0.69408     2.95224
H      3.04059     0.19003     1.90702
H      2.95411    -0.46795     3.40642
N     -3.29957    -0.47463     1.65427
H     -2.27960    -0.44609     1.57945
H     -3.59657     0.35505     2.15398
H     -3.52856    -1.26629     2.24394
N     -0.32124    -0.44737     1.26174
H     -0.04571     0.53743     1.28795
H      0.24545    -0.90686     1.96546
H      0.01508    -0.79863     0.36908
N     -1.39108     1.58808    -1.18233
H     -1.42476     0.69912    -1.66246
H     -1.62308     1.37626    -0.22138
H     -2.12545     2.17192    -1.55536
N     -0.58183    -2.41474    -1.52441
H     -1.53528    -2.04720    -1.57854
H     -0.55709    -3.29153    -2.03005
H     -0.43756    -2.64964    -0.54933
N     -3.30833    -1.27821    -1.44734
H     -3.40925    -1.01437    -0.46671
H     -3.56033    -0.46406    -1.99461
H     -4.00151    -1.98973    -1.64361
