 28
-396.21827434874507
N      4.79268    -0.31605    -1.44058
H      5.21120     0.58354    -1.23275
H      4.87249    -0.45824    -2.44095
H      3.80147    -0.23939    -1.22997
N      2.01229    -0.82588    -0.21611
H      1.22488    -1.29528    -0.67794
H      2.73001    -1.50175     0.01731
H      1.64516    -0.47163     0.65950
N     -0.36301    -2.21993    -1.36118
H     -1.24362    -1.75981    -1.09254
H     -0.42058    -2.47078    -2.34219
H     -0.31712    -3.09383    -0.84623
N     -2.37253    -0.03601     2.25244
H     -1.86147     0.84787     2.26308
H     -3.28021     0.13661     2.66849
H     -1.89107    -0.68469     2.86559
N     -2.81395    -0.78152    -0.58621
H     -3.67918    -1.30651    -0.65681
H     -2.64647    -0.57335     0.40635
H     -2.98162     0.11263    -1.03664
N      0.03399     1.35257    -0.69840
H     -0.52468     0.58007    -1.03929
H      0.01530     2.05833    -1.42617
H      0.98386     0.99028    -0.65806
N     -0.83989     2.53101     1.91463
H     -0.51699     2.10466     1.04033
H     -1.40373     3.33642     1.66955
H     -0.03038     2.87163     2.41928
