 24
-339.605422894563
N      0.01904    -2.09563     0.93812
H      0.22732    -1.84271     1.89529
H     -0.95616    -1.89670     0.75400
H      0.13751    -3.09592     0.85170
N      1.40783     2.62196    -0.93019
H      1.04106     1.85940    -0.37284
H      2.08253     2.16708    -1.53458
H      1.91859     3.23749    -0.31199
N     -0.93959     1.61235    -3.23112
H     -1.01106     2.10197    -4.11397
H     -1.86610     1.58148    -2.82606
H     -0.36901     2.18382    -2.61589
N      1.61182    -0.54670    -1.61390
H      1.20207    -1.12426    -0.88769
H      0.86059    -0.27977    -2.23959
H      2.25061    -1.12618    -2.14030
N     -3.30147    -1.40586     1.81104
H     -3.79629    -0.53061     1.70473
H     -3.90035    -2.04820     2.31212
H     -2.50249    -1.22325     2.40366
N      1.36859    -0.08904     3.20883
H      1.42813    -0.11023     2.19874
H      2.30139    -0.24659     3.56413
H      1.08987     0.84631     3.47293
