 24
-339.60369983013385
N      0.81457    -4.51609     1.31469
H      0.81815    -4.87403     2.26187
H      1.42613    -5.10797     0.76573
H      1.24105    -3.59797     1.34288
N      0.10545     2.07230     0.13790
H      0.66501     2.67005     0.73304
H     -0.00016     2.54800    -0.74953
H     -0.82381     2.02831     0.53655
N      1.49451    -0.85980    -1.73915
H      0.92120    -0.04419    -1.57437
H      0.88729    -1.66136    -1.64505
H      2.15385    -0.91181    -0.97499
N     -2.32311     2.72036    -1.89885
H     -2.42566     2.33736    -2.82880
H     -2.78095     2.07971    -1.26417
H     -2.84596     3.58541    -1.87226
N     -2.58354     0.10302     0.63298
H     -3.06183    -0.61875     0.11025
H     -1.60497     0.05116     0.37956
H     -2.64957    -0.14946     1.61056
N      2.32639     0.23436     1.46431
H      3.15036     0.81785     1.38931
H      1.60775     0.65094     0.87952
H      2.00035     0.29421     2.42076
