 36
-509.4260107815844
N     -0.75641    -0.48487     0.37078
H     -0.81855    -1.18785    -0.35711
H     -1.26147     0.33286     0.06058
H      0.22336    -0.23131     0.42234
N      0.44935     2.24124     1.69559
H      0.26706     1.35736     2.16017
H      1.03068     2.01218     0.87593
H      0.99691     2.79930     2.34046
N      1.54763    -2.93107     2.01793
H      2.24177    -2.56664     2.65884
H      0.63165    -2.80366     2.44212
H      1.71234    -3.92735     1.93661
N      1.87329     1.44654    -0.77062
H      2.62126     1.96934    -1.20614
H      2.18244     0.47794    -0.67160
H      1.10320     1.43058    -1.42967
N     -1.98011     2.84507     0.12315
H     -2.17288     3.83827     0.04891
H     -2.77241     2.44438     0.61405
H     -1.15680     2.72752     0.73054
N      2.10663    -1.59710    -0.65809
H      1.74395    -2.00622     0.20302
H      1.36908    -1.61936    -1.35645
H      2.84115    -2.21356    -0.98311
N     -1.36427     1.77029    -2.50110
H     -2.22806     1.77820    -3.03527
H     -1.58033     2.13704    -1.56293
H     -0.75790     2.44576    -2.95690
N     -0.42834    -1.14588    -3.02611
H      0.11001    -0.91152    -3.85098
H     -0.78907    -0.26067    -2.66813
H     -1.22081    -1.68789    -3.34740
N     -1.38192    -2.14717     2.85157
H     -2.13995    -2.74382     2.54208
H     -1.74500    -1.56986     3.60018
H     -1.15084    -1.53453     2.06793
