 24
-339.6090905114523
N      2.39983    -0.10828     2.75104
H      1.40264    -0.28870     2.83948
H      2.87131    -0.97534     2.97520
H      2.63897     0.55836     3.47385
N     -1.00334    -0.72374     3.05498
H     -1.40988    -0.65049     2.12783
H     -1.16967    -1.66892     3.37168
H     -1.52783    -0.10509     3.65787
N     -0.28255    -1.48488    -2.61581
H      0.42999    -2.18937    -2.75576
H     -0.74474    -1.35705    -3.50564
H      0.20075    -0.62385    -2.40046
N      0.53254     2.25813    -2.97122
H      1.41558     2.21867    -3.46159
H      0.66822     1.86376    -2.04625
H     -0.12161     1.66364    -3.46059
N     -2.40418    -0.37366    -0.07537
H     -1.97662     0.45000    -0.47554
H     -2.13946    -1.13475    -0.68814
H     -3.40474    -0.25765    -0.14911
N      0.66625     0.53820    -0.07720
H      1.54880     0.56535     0.41991
H     -0.02480     0.92508     0.55357
H      0.41628    -0.43805    -0.18482
