 28
-396.21662816385157
N      2.24164    -0.18265     0.29878
H      1.83333    -1.11233     0.26735
H      2.13661     0.22796    -0.62258
H      3.23015    -0.30545     0.47175
N      1.86942     1.99964    -1.98272
H      2.31540     2.22769    -1.10604
H      2.33610     2.51839    -2.71091
H      0.92067     2.34257    -1.90732
N     -1.26339     2.66448    -0.39670
H     -0.96140     3.55667    -0.02081
H     -1.17023     1.97993     0.35936
H     -2.25394     2.76360    -0.59055
N     -0.72478     0.73926     1.75459
H     -0.65001     1.04287     2.71581
H     -1.13562    -0.18468     1.75398
H      0.21706     0.65206     1.38717
N     -2.17819    -2.07628     0.16071
H     -2.23994    -2.96451    -0.32564
H     -3.11381    -1.68690     0.16727
H     -1.59383    -1.46144    -0.41299
N     -0.56546    -0.38684    -1.67519
H     -0.81456     0.58194    -1.49861
H      0.42375    -0.39915    -1.88546
H     -1.03423    -0.66616    -2.52724
N      0.64315    -2.71106     1.65618
H      0.90629    -1.80076     2.01168
H     -0.30322    -2.62177     1.29453
H      0.61146    -3.33608     2.45202
