 24
-339.6095647979181
N      0.90499     1.68273    -0.34247
H      1.77210     1.15940    -0.32487
H      1.13284     2.59332    -0.71822
H      0.62260     1.82553     0.62429
N     -0.85008     1.80949     2.57770
H     -1.39079     1.52062     1.76518
H     -0.81213     1.01228     3.20017
H     -1.38469     2.53151     3.04429
N     -1.37414    -3.77311    -0.45932
H     -1.68488    -3.84936     0.50217
H     -1.46812    -2.79852    -0.72836
H     -2.01959    -4.30604    -1.03005
N     -2.50769     1.12839    -0.20937
H     -3.40876     1.45176    -0.52999
H     -1.79849     1.62832    -0.73178
H     -2.40444     0.15921    -0.48282
N     -0.37449    -1.00008    -1.50094
H     -0.18500    -0.83000    -2.48161
H     -0.05261    -0.17236    -1.00164
H      0.22902    -1.76594    -1.22549
N      4.20918     0.05592    -0.18102
H      4.13907    -0.69836     0.48878
H      4.58913    -0.32955    -1.03504
H      4.88079     0.71884     0.18190
