 20
-283.0076656273671
N      0.47616     1.40121     1.75448
H      1.27836     1.47408     1.13867
H     -0.10603     2.18963     1.49868
H      0.80349     1.55795     2.69757
N     -1.15263    -1.05991     0.64376
H     -1.04034    -1.82705     1.29580
H     -0.55481    -0.29536     0.95482
H     -2.10876    -0.73541     0.73008
N      0.27949     0.04602    -1.87492
H      1.14661    -0.45331    -2.03149
H     -0.23332    -0.46126    -1.15843
H     -0.25466    -0.02108    -2.73294
N     -0.50260    -4.27638     0.48126
H     -0.73531    -3.46149    -0.07231
H      0.48230    -4.45813     0.33603
H     -1.02005    -5.05945     0.10323
N      0.58566     3.29823    -0.93298
H     -0.19203     3.82553    -1.30851
H      1.41958     3.61401    -1.41169
H      0.43990     2.32665    -1.20002
