 36
-509.42616751734886
N     -1.11576     2.80575     1.22921
H     -1.43377     3.69538     1.58699
H     -1.73675     2.55659     0.46869
H     -1.25582     2.10471     1.95588
N     -1.13605    -0.32347     0.15449
H     -0.44673    -0.86595     0.66610
H     -0.64654     0.49418    -0.18979
H     -1.80690     0.00382     0.83964
N      0.78117     0.97415    -2.49754
H      0.11622     1.64047    -2.87836
H      1.55358     0.94689    -3.15500
H      0.34667     0.04590    -2.54033
N      1.82448    -1.81001    -0.11039
H      2.47339    -2.45435    -0.53852
H      0.96479    -1.84218    -0.64059
H      2.19265    -0.87872    -0.25369
N      1.96243     1.76018     0.13121
H      1.20205     2.19842     0.64554
H      2.67275     2.47028     0.00376
H      1.58755     1.51034    -0.78949
N     -2.74594    -2.18113    -1.63859
H     -2.13877    -1.55610    -1.10510
H     -3.58639    -1.66025    -1.85636
H     -3.01323    -2.93404    -1.01660
N     -0.11025    -1.77553    -3.20465
H     -0.15420    -1.69013    -4.21242
H      0.55792    -2.51058    -3.00474
H     -1.02101    -2.08288    -2.87577
N     -1.11581     0.60688     3.47920
H     -0.21618     0.33351     3.05458
H     -1.50021    -0.20723     3.94597
H     -0.89185     1.26895     4.21379
N      1.59996    -0.05800     2.49863
H      2.30240     0.12980     3.20455
H      1.72093    -1.02625     2.22202
H      1.82778     0.50191     1.67146
