 36
-509.42607446812127
N     -1.56790     1.11438    -1.73594
H     -2.13621     0.41321    -2.19280
H     -1.29206     1.78804    -2.44196
H     -0.72470     0.64292    -1.42732
N     -0.89134     0.79517     2.96631
H     -1.33705     0.82475     3.87649
H     -0.11731     1.44980     3.00879
H     -1.56318     1.14895     2.27936
N      2.11213    -0.17363    -2.68946
H      3.12416    -0.13452    -2.69703
H      1.83232    -0.32328    -1.72168
H      1.86498    -1.01395    -3.19820
N      2.81048    -2.29513     1.78950
H      2.98697    -3.23063     1.44479
H      3.34267    -2.18581     2.64389
H      1.81261    -2.23498     2.03161
N     -1.64235    -1.74667    -0.15408
H     -1.67810    -1.78353    -1.16228
H     -2.00234    -0.84035     0.10926
H     -0.65795    -1.73168     0.08140
N     -2.83429     1.75777     0.93371
H     -2.39736     1.66325     0.01515
H     -3.09836     2.72936     1.05072
H     -3.69469     1.22031     0.91756
N      0.52099     2.57916    -3.96618
H      1.08983     3.37713    -3.71510
H      0.55124     2.49496    -4.97393
H      0.98511     1.75806    -3.58630
N      1.41259    -0.02502     0.21368
H      1.91330     0.82525    -0.00972
H      0.68162     0.23009     0.86405
H      2.04216    -0.66362     0.69523
N     -0.03003    -2.05315     2.55803
H     -0.36877    -1.08372     2.63941
H     -0.73312    -2.56292     2.03123
H     -0.03673    -2.44512     3.49563
