 24
-339.6140246562168
N     -1.09509    -1.35989     1.08844
H     -1.32114    -1.63657     0.13995
H     -0.12080    -1.07177     1.09730
H     -1.16363    -2.18980     1.66407
N      2.40628     2.00913    -1.54629
H      1.77367     2.61733    -2.04772
H      3.34874     2.27647    -1.79514
H      2.25688     1.06800    -1.89427
N      1.77202    -1.35756    -1.50211
H      2.36673    -2.11128    -1.81870
H      2.01512    -1.16478    -0.53749
H      0.82223    -1.70661    -1.49541
N     -3.31315     0.92600     2.20401
H     -2.67722     0.19429     1.90245
H     -3.35179     0.89931     3.21510
H     -4.23576     0.68503     1.86437
N     -1.22887    -0.45431    -2.06817
H     -1.55712     0.00746    -1.23063
H     -0.26897    -0.15467    -2.19625
H     -1.77209    -0.09898    -2.84182
N      1.55122     0.57814     1.45377
H      1.83808     1.18081     0.68975
H      0.58995     0.81618     1.65856
H      2.09886     0.82464     2.26509
