 24
-339.6130408039572
N     -0.83614    -3.73509    -0.30093
H     -0.59730    -4.45124     0.37344
H     -0.97792    -4.19423    -1.19183
H     -0.01833    -3.13838    -0.40130
N      0.88201     2.62260    -0.79291
H     -0.11798     2.53936    -0.94950
H      1.02538     3.49345    -0.29470
H      1.32129     2.73814    -1.69769
N      1.45772    -1.38920    -0.76763
H      0.76505    -0.69728    -1.02851
H      1.90831    -1.02385     0.06183
H      2.15073    -1.40508    -1.50205
N     -2.15348     2.04260    -0.80941
H     -2.82449     1.70802    -1.49030
H     -1.78059     1.22352    -0.32828
H     -2.66397     2.58702    -0.12393
N     -1.38853    -0.51032     0.68265
H     -0.45622    -0.51638     1.08296
H     -2.03628    -0.50734     1.46130
H     -1.50927    -1.40769     0.21956
N      1.98994     0.93878     1.77080
H      1.60491     1.39520     0.94430
H      1.52088     1.34244     2.57363
H      2.96146     1.22070     1.83467
