 36
-509.43183690535847
N      0.51404     2.83713    -0.83578
H      0.85542     3.11222     0.07844
H      1.28105     2.38686    -1.33379
H      0.29367     3.69469    -1.32638
N      2.66819     0.96344    -1.99782
H      3.62013     1.19454    -2.25478
H      2.67248     0.63640    -1.02096
H      2.38106     0.18570    -2.57994
N      0.24127     1.34830     2.12225
H     -0.71962     1.65472     2.14199
H      0.44959     1.13554     1.15477
H      0.29542     0.47353     2.62120
N      2.78323     0.11766     0.84253
H      3.71425    -0.21830     1.06012
H      2.11581    -0.60158     1.12995
H      2.61200     0.91810     1.44176
N     -2.69320    -2.21979    -1.68397
H     -1.75350    -1.94444    -1.95089
H     -3.31544    -1.92865    -2.42674
H     -2.70983    -3.23144    -1.68188
N     -2.05975     1.40114    -0.25732
H     -2.74135     2.13450    -0.40531
H     -1.13744     1.79737    -0.47103
H     -2.25311     0.68085    -0.94568
N     -2.09954    -1.26452     1.64645
H     -2.62506    -1.73511     0.91762
H     -2.14610    -0.27154     1.43164
H     -2.60058    -1.41193     2.51296
N      0.72557    -2.13434     1.50089
H      0.74740    -2.65406     0.62831
H     -0.23156    -1.76518     1.57135
H      0.84523    -2.82076     2.23821
N      0.10934    -0.83602    -1.39867
H     -0.59638    -0.83028    -0.67418
H      0.97631    -1.08491    -0.94876
H      0.21140     0.11669    -1.71628
