 40
-566.0347921037943
N     -1.87916    -1.38508    -1.24536
H     -1.50748    -1.07970    -2.13504
H     -1.07739    -1.46981    -0.61925
H     -2.25311    -2.31223    -1.39984
N     -2.34711    -1.23275     2.57458
H     -3.02029    -0.48416     2.46825
H     -2.19900    -1.58646     1.63843
H     -2.79728    -1.96778     3.10200
N      1.48752    -1.74837    -2.29370
H      0.91240    -1.02598    -2.72259
H      0.88022    -2.29439    -1.69417
H      1.80485    -2.35880    -3.03479
N      1.19319     1.92348    -0.74131
H      0.58699     2.02134     0.06759
H      2.04225     1.48551    -0.40707
H      1.44419     2.86466    -1.01557
N      3.67088    -0.71292    -0.66129
H      2.87297    -1.02874    -1.22562
H      4.12621     0.02290    -1.19425
H      4.33475    -1.47901    -0.62344
N     -0.80781     1.64270     2.09205
H     -1.67368     1.73568     1.57274
H     -0.89806     0.75913     2.58009
H     -0.79770     2.37194     2.79129
N      2.98325     1.02862     2.11535
H      3.18857     0.32264     1.41577
H      3.34460     0.69716     2.99859
H      1.97572     1.05258     2.20075
N     -0.31350     0.94361    -3.08494
H     -1.26102     0.92505    -2.73061
H      0.26673     1.26295    -2.30376
H     -0.28454     1.64887    -3.81025
N     -3.82300     0.99715     0.25492
H     -3.75552     1.83907    -0.30257
H     -3.29222     0.28204    -0.23433
H     -4.79263     0.70993     0.23988
N      0.40325    -1.29207     0.75858
H      1.40667    -1.37397     0.70738
H      0.11068    -1.47791     1.70780
H      0.18099    -0.32417     0.56574
