 20
-283.0084581995202
N      1.94852     1.67807    -0.67939
H      2.03557     0.67146    -0.79385
H      1.23479     1.97233    -1.33686
H      2.82252     2.09404    -0.97410
N      0.35180     1.45317     2.14248
H      0.59406     2.18206     2.80323
H      0.71065     0.58042     2.51620
H      0.87281     1.62431     1.28448
N      1.83138    -1.71466    -1.17049
H      2.10150    -2.15113    -2.04257
H      2.07703    -2.35538    -0.42764
H      0.81720    -1.64664    -1.17786
N     -1.58442    -1.51780    -1.54613
H     -1.89070    -0.95625    -2.33001
H     -2.16335    -2.34736    -1.52809
H     -1.79529    -0.98936    -0.70402
N     -2.50678     0.18365     1.26402
H     -1.63954     0.67386     1.47339
H     -2.73678    -0.36447     2.08441
H     -3.23002     0.88670     1.16746
