 28
-396.2179972590231
N      3.38588    -1.95744    -0.76563
H      2.61467    -1.33860    -1.01269
H      4.16636    -1.70487    -1.35983
H      3.10622    -2.89647    -1.02352
N      1.16413     0.13909    -1.34963
H      0.85674     0.49420    -0.44987
H      1.60283     0.92825    -1.81511
H      0.30383    -0.08666    -1.86042
N     -2.01576     1.73401     1.99022
H     -1.58129     0.86591     1.66326
H     -1.29752     2.27892     2.45542
H     -2.69828     1.48084     2.69518
N     -0.81803    -0.88742     1.19054
H      0.08394    -0.90996     1.66139
H     -1.33954    -1.68643     1.53159
H     -0.62360    -1.05286     0.20919
N     -1.55924    -0.31665    -2.35575
H     -1.86447     0.54921    -1.89303
H     -1.80454    -0.25224    -3.33719
H     -2.11303    -1.06969    -1.96312
N     -2.53693     2.14677    -1.03103
H     -2.42730     2.10606    -0.01902
H     -2.12832     3.01953    -1.34483
H     -3.52974     2.20573    -1.22494
N      2.42087    -0.87023     2.32868
H      2.73709    -1.51008     3.04594
H      2.80757    -1.20863     1.44962
H      2.86749     0.01898     2.51304
