 24
-339.61273604201233
N      0.00985    -1.72565     2.00769
H      0.44137    -2.52268     2.45207
H     -0.38812    -2.02719     1.13115
H      0.73637    -1.06218     1.77705
N      0.75492     2.90265     0.78945
H      0.61470     3.67049     0.14414
H     -0.08101     2.31909     0.75215
H      0.80506     3.28547     1.72607
N      0.83858    -2.04032    -1.29478
H      1.22882    -1.32420    -0.68484
H      0.59945    -2.81974    -0.69510
H      1.58743    -2.36534    -1.89371
N     -1.98616     1.02128     0.82747
H     -2.89706     1.33966     1.12629
H     -2.09191     0.66511    -0.11707
H     -1.74020     0.23026     1.40887
N     -1.96458    -0.32735    -2.37953
H     -1.11269    -0.80094    -2.10021
H     -2.59709    -1.03778    -2.72252
H     -1.72733     0.27023    -3.15951
N      2.23187     0.44265    -0.00593
H      3.20006     0.45963     0.29204
H      2.24012     0.47196    -1.01952
H      1.79834     1.31346     0.29792
