 36
-509.42883448754844
N     -2.86024    -1.24968     0.15084
H     -2.27941    -1.79263    -0.47975
H     -2.49511    -1.38299     1.08404
H     -3.79116    -1.63861     0.12705
N      1.64803     2.48940     0.02257
H      0.95326     2.42284     0.76301
H      2.15556     3.35584     0.15248
H      1.13210     2.56139    -0.84371
N      0.65180     0.19787    -2.43928
H      0.90875     0.07098    -3.40751
H      1.42987    -0.07710    -1.85518
H     -0.10278    -0.44676    -2.23394
N     -0.97001     2.40099     1.69256
H     -1.09346     3.39023     1.87804
H     -1.15916     2.24315     0.69273
H     -1.71056     1.93284     2.19960
N     -0.57146    -0.50180     3.10301
H     -0.40392     0.39123     2.64849
H     -0.71086    -0.32786     4.08885
H      0.29689    -1.01194     3.01464
N     -1.61166     1.71490    -1.08120
H     -2.11309     0.91592    -0.69978
H     -2.23701     2.16404    -1.74019
H     -0.81587     1.33316    -1.59508
N      3.17122    -0.02105     0.05052
H      3.84354     0.04685    -0.70710
H      2.61476     0.84415     0.04703
H      3.71641    -0.01239     0.90730
N      0.96294    -2.21147     0.52381
H      1.70575    -1.52517     0.39056
H      0.23476    -1.77928     1.08323
H      1.33233    -2.99740     1.04453
N     -0.58958    -2.79300    -1.93066
H      0.02711    -2.59227    -1.13482
H     -0.77608    -3.78932    -1.92719
H     -0.04823    -2.60438    -2.76594
