 36
-509.4277788271567
N      0.30848     0.59510    -2.21008
H      1.03269     0.16181    -1.64475
H      0.76287     0.86799    -3.07604
H      0.06659     1.45539    -1.71395
N      2.48633     0.07645     1.16125
H      3.33428    -0.28542     1.58025
H      1.81914     0.17053     1.92234
H      2.10610    -0.65725     0.56777
N      3.26741     2.87840     0.24677
H      3.95168     2.81513    -0.49739
H      3.73929     3.26894     1.05333
H      3.00313     1.92447     0.49548
N      0.65752    -1.96460    -0.02083
H      0.19734    -1.46531     0.72809
H      0.93061    -2.86886     0.33705
H     -0.01021    -2.08720    -0.76791
N     -2.74924    -2.84291    -0.09296
H     -2.01441    -3.41704     0.30268
H     -3.50919    -3.45865    -0.35092
H     -2.37401    -2.43398    -0.94813
N     -2.09475     0.09172     0.72889
H     -1.70645     0.45542    -0.13522
H     -2.97779     0.57242     0.86019
H     -2.32339    -0.88941     0.57291
N     -1.56890    -1.57001    -2.75843
H     -1.09236    -2.13961    -3.45051
H     -2.39651    -1.20504    -3.22160
H     -0.95586    -0.76299    -2.55794
N     -0.34606     0.15528     3.11363
H     -1.00667     0.13326     2.32870
H     -0.62060    -0.57378     3.76247
H     -0.48119     1.03286     3.60165
N     -0.04489     2.72844    -0.22277
H     -0.29408     2.18528     0.59602
H     -0.45156     3.64700    -0.10544
H      0.96596     2.84590    -0.18058
