 36
-509.4270716603768
N     -0.51166     2.21195     3.16061
H     -0.95658     2.87503     3.78074
H      0.36670     2.61677     2.86602
H     -1.08478     2.13666     2.32306
N      1.71233     1.86875    -0.04383
H      2.38141     2.49356     0.38197
H      0.84206     1.96085     0.46280
H      2.02350     0.92415     0.14979
N      0.37004     0.69863    -3.01216
H      1.07364     0.08506    -3.40108
H      0.12105     1.35741    -3.73592
H      0.84026     1.22206    -2.28143
N     -1.35623    -3.34263     0.53948
H     -1.92942    -4.05732     0.96987
H     -0.45994    -3.76935     0.34014
H     -1.19283    -2.60816     1.22857
N     -2.16849    -0.70142    -1.20878
H     -3.04613    -0.66339    -1.71200
H     -1.44704    -0.41590    -1.86965
H     -2.00659    -1.67356    -0.96208
N     -1.33556    -0.95797     2.38443
H     -1.99461    -1.28242     3.08138
H     -0.86716    -0.15478     2.78980
H     -1.87539    -0.61769     1.59914
N      1.35007    -1.50619     0.27340
H      1.03164    -1.28169     1.20800
H      0.51908    -1.45596    -0.30307
H      1.63372    -2.47602     0.29298
N     -1.70540     1.86405     0.10125
H     -1.94901     0.91791    -0.20804
H     -2.49168     2.46104    -0.13298
H     -0.95661     2.14690    -0.52251
N      3.50962    -0.28076    -2.17293
H      3.39588     0.70938    -1.99942
H      2.95587    -0.74720    -1.46384
H      4.47910    -0.50834    -2.00028
