 36
-509.4293364462372
N     -0.11832     1.97277    -1.22531
H     -0.65487     1.55495    -0.47389
H      0.83268     2.04425    -0.87981
H     -0.44553     2.92471    -1.32331
N      1.46842     0.92897     2.90442
H      0.63155     0.45445     2.54657
H      1.92157     0.29638     3.55336
H      1.12775     1.70527     3.46245
N      1.54363    -0.94033    -0.13461
H      1.83368    -0.22184     0.51508
H      0.86006    -0.51802    -0.75006
H      2.34352    -1.17061    -0.70765
N     -1.03522    -0.40170     2.14021
H     -1.46296    -0.73323     2.99859
H     -1.71135     0.23194     1.71984
H     -1.00185    -1.19298     1.50776
N     -2.89041     0.57628    -0.02995
H     -2.81586     1.23082    -0.79846
H     -2.44205    -0.28873    -0.35982
H     -3.87928     0.39456     0.10038
N      0.21924    -3.28057     0.96467
H      0.76707    -2.48086     0.62625
H      0.04015    -3.09916     1.94351
H      0.79450    -4.11155     0.92232
N     -1.65880    -1.77593    -1.31181
H     -1.04917    -2.44657    -0.85075
H     -1.21599    -1.48216    -2.17762
H     -2.49542    -2.27604    -1.58573
N      2.80312     2.77143     0.58324
H      2.75377     3.73410     0.89335
H      3.78117     2.56003     0.43321
H      2.47970     2.19554     1.35763
N     -0.31746     0.03930    -3.99838
H     -0.19239     0.72393    -3.25898
H      0.59072    -0.12625    -4.41138
H     -0.89920     0.46614    -4.70703
