 24
-339.611406783082
N      0.38703    -2.19753     1.94254
H      0.22421    -2.14452     2.93928
H      1.00270    -2.98299     1.78020
H      0.89604    -1.36084     1.67717
N     -0.62638     2.69481     1.82878
H     -0.20886     1.88437     2.26042
H     -0.45552     2.60433     0.83759
H     -0.13136     3.51278     2.15376
N      0.53186    -1.63069    -2.95194
H      1.26152    -2.29504    -2.73287
H     -0.08662    -1.60847    -2.15159
H     -0.00342    -2.00848    -3.72104
N     -0.04217     1.42553    -1.57423
H     -0.31133     2.20503    -2.15692
H      0.51809     0.81002    -2.15401
H     -0.88171     0.89871    -1.36385
N     -2.05669    -1.22276    -0.29270
H     -2.76970    -1.91177    -0.48573
H     -1.39699    -1.63383     0.35974
H     -2.50063    -0.46416     0.21189
N      2.09745     0.67304     1.01205
H      3.02022     0.55072     0.61749
H      1.47618     0.88307     0.23707
H      2.12387     1.50962     1.57959
