 40
-566.0393393151791
N     -0.32696    -2.34204     1.05518
H     -0.24360    -1.39454     1.40750
H     -0.22982    -2.97006     1.84125
H      0.48016    -2.48165     0.45825
N     -3.52396    -0.98285     0.98078
H     -4.41541    -1.37427     1.24447
H     -3.62643    -0.59532     0.05328
H     -2.86993    -1.75062     0.88887
N      1.36330    -0.02873    -2.76183
H      0.47633    -0.52173    -2.78705
H      1.16702     0.81906    -2.24371
H      1.58706     0.24015    -3.71006
N     -2.80409     1.77252    -0.80416
H     -3.41592     2.52858    -1.07935
H     -3.07374     1.48702     0.12904
H     -1.86676     2.15398    -0.72198
N      2.42309    -0.25687     2.41290
H      2.79986    -0.33270     3.34643
H      1.50642     0.17275     2.48568
H      2.27325    -1.19462     2.06184
N     -0.83551     0.81991     2.31273
H     -1.57536     0.20214     2.00049
H     -1.17396     1.28083     3.14426
H     -0.74456     1.52976     1.59900
N      2.80068    -2.10058    -0.41684
H      3.45148    -2.77706    -0.78863
H      2.38340    -1.61953    -1.20681
H      3.33569    -1.40917     0.09001
N     -1.67619    -1.14313    -2.20272
H     -2.43075    -1.68514    -2.59717
H     -1.41674    -1.57119    -1.32373
H     -2.04026    -0.22458    -1.97288
N      2.52513     1.48217    -0.01370
H      2.54960     0.89231     0.81904
H      2.74013     0.89759    -0.81406
H      3.28509     2.14940     0.06285
N      0.16152     3.18253    -0.40520
H      0.24863     3.51153    -1.36277
H      0.94760     2.54284    -0.23375
H      0.31052     4.00209     0.17351
