 24
-339.61102470060985
N     -0.40946    -2.47917     0.75941
H     -0.77525    -3.12385     0.06492
H      0.56321    -2.27478     0.50260
H     -0.39963    -2.99028     1.63588
N      0.21005     1.03448     1.12090
H      0.36761     1.45385     2.02841
H     -0.78648     1.08195     0.94706
H      0.44897     0.05380     1.19792
N      2.38863    -1.81667     0.13102
H      2.74441    -2.48467    -0.54563
H      2.48404    -0.88359    -0.27841
H      3.01796    -1.86127     0.92588
N     -2.07419     2.83791    -0.81379
H     -1.09691     2.86043    -0.55341
H     -2.35359     1.86046    -0.79766
H     -2.13855     3.16182    -1.76997
N     -2.62519    -0.44194    -0.27691
H     -1.81051    -0.95067     0.06229
H     -3.37287    -0.61457     0.38494
H     -2.90278    -0.87482    -1.15088
N      2.41551     1.04048    -0.83211
H      1.61394     1.16817    -0.20715
H      3.11452     1.73487    -0.59565
H      2.09805     1.24232    -1.77426
