 20
-283.008286433292
N     -2.25617     1.49635     0.02114
H     -2.65488     1.32538     0.93558
H     -1.29366     1.78924     0.16957
H     -2.74967     2.28359    -0.37929
N      0.39711    -2.55481     0.94734
H     -0.14542    -2.42297     1.79160
H     -0.19477    -2.25769     0.17629
H      0.54486    -3.54977     0.83750
N      2.62938    -0.12525     0.21703
H      2.52158    -0.14471    -0.79133
H      3.59114    -0.36601     0.42020
H      2.04052    -0.87490     0.57176
N     -1.62268    -1.44666    -1.64339
H     -1.23158    -1.27510    -2.56012
H     -2.55542    -1.81396    -1.78173
H     -1.72672    -0.54157    -1.19237
N      0.90165     2.61827     0.53127
H      1.31670     3.17067    -0.20967
H      1.08286     3.10587     1.40088
H      1.41783     1.74147     0.56561
