 24
-339.6092832615308
N      2.56610    -0.62258    -0.21519
H      3.49251    -0.26035    -0.38816
H      2.00672     0.14441     0.13610
H      2.63033    -1.29435     0.54119
N     -2.21711     2.94254     1.38876
H     -1.85104     2.17132     1.92930
H     -2.25534     2.63210     0.42886
H     -1.52716     3.67895     1.43238
N      0.42136    -1.47973    -2.65568
H      0.86585    -1.40284    -3.56121
H      1.15058    -1.36601    -1.95730
H      0.07866    -2.42814    -2.57562
N     -1.54581     1.30525    -1.90964
H     -1.05076     2.04523    -2.38916
H     -1.01976     0.45395    -2.07980
H     -2.43786     1.19606    -2.37201
N     -0.63015    -0.27580     1.03834
H     -1.45208    -0.83630     1.23431
H     -0.94689     0.45803     0.41561
H     -0.01388    -0.86514     0.49028
N      1.42185    -2.18977     2.50914
H      0.78492    -1.40618     2.40073
H      0.85021    -3.02452     2.55053
H      1.86938    -2.09367     3.41260
