 24
-339.6074233427085
N     -0.82421    -1.86873     0.90706
H     -1.81498    -1.65265     0.91640
H     -0.70366    -2.74834     0.42099
H     -0.54336    -2.02174     1.86514
N      1.46665     1.00583    -0.13328
H      2.18872     1.47738     0.39730
H      0.63672     1.58242    -0.11264
H      1.22836     0.14551     0.34439
N      0.29316    -3.47559    -1.65660
H      0.23912    -2.49982    -1.39065
H      1.26713    -3.67713    -1.83856
H     -0.20818    -3.57170    -2.52938
N     -3.19956     0.41962     0.73489
H     -3.89587     1.02697     1.14366
H     -2.38359     0.44702     1.33184
H     -2.90632     0.82263    -0.14836
N     -1.15350     0.57605    -1.82421
H     -0.14713     0.68564    -1.84418
H     -1.34229    -0.23154    -1.24298
H     -1.45191     0.33755    -2.76119
N      3.70320     2.90142     1.78387
H      3.23566     3.22962     2.61908
H      4.55303     2.43583     2.07419
H      3.97160     3.71643     1.24770
