 24
-339.6091978194083
N      1.53984    -2.21351     2.64295
H      1.20997    -2.36221     3.58656
H      1.26123    -1.27783     2.37693
H      1.01564    -2.82836     2.03622
N      0.36286     0.99311     1.09405
H      0.41581     1.64281     0.32136
H     -0.44103     0.40347     0.89966
H      0.14790     1.54278     1.91333
N      0.18475     0.79154    -2.25331
H      0.94242     0.69078    -1.59096
H     -0.52963     0.14246    -1.94597
H      0.53743     0.45266    -3.13883
N     -2.33460    -1.01038    -0.02869
H     -2.97171    -1.13591     0.74633
H     -2.74507    -0.30911    -0.63845
H     -2.32020    -1.88107    -0.54240
N     -3.04428     1.58620    -2.14088
H     -3.51882     1.51665    -3.03086
H     -2.06174     1.75003    -2.33111
H     -3.39512     2.41315    -1.67780
N      3.83695    -0.24183     0.86091
H      2.92889     0.20155     0.83502
H      3.69361    -1.16632     1.24241
H      4.39365     0.26654     1.53343
