 24
-339.61254119722366
N      0.23888    -1.06831     1.29092
H     -0.44668    -1.40592     1.95733
H      1.12208    -1.48105     1.56257
H      0.32679    -0.06326     1.43499
N      0.14697     2.08456     1.27844
H     -0.59201     2.28541     1.94435
H      0.58544     2.97382     1.06626
H     -0.31044     1.77479     0.41719
N      0.25734    -1.20134    -2.41936
H      0.59652    -1.14158    -1.46804
H     -0.70181    -1.51465    -2.35117
H      0.78230    -1.92751    -2.88585
N     -1.24263     1.47175    -1.29492
H     -1.76516     2.29114    -1.57857
H     -0.57294     1.27314    -2.02966
H     -1.88419     0.68666    -1.29120
N     -2.39346    -1.65087    -0.29697
H     -2.52078    -2.65198    -0.20523
H     -1.45801    -1.43281     0.04427
H     -3.04869    -1.21290     0.34041
N      3.18395     0.24259     1.37040
H      2.68216     0.02315     0.51975
H      2.64825     0.98728     1.79823
H      4.08202     0.62003     1.10009
