 24
-339.6113466612272
N      0.87868    -2.59080     1.76680
H      0.25548    -1.94979     1.29233
H      1.75911    -2.52555     1.27262
H      0.51864    -3.52146     1.60558
N      0.76419     2.36881     0.53876
H     -0.16545     2.19875     0.14553
H      0.65115     2.47731     1.54301
H      1.07695     3.26911     0.18998
N      0.32210    -0.80561    -1.20216
H      0.55757    -1.01037    -2.16596
H      0.07852     0.17563    -1.16270
H      1.18066    -0.91077    -0.67032
N     -1.91898     2.04470    -0.69258
H     -2.31037     1.11308    -0.83896
H     -2.51868     2.51809    -0.02438
H     -2.01578     2.55368    -1.56473
N     -2.65911    -0.89860    -1.10791
H     -1.64565    -1.02276    -1.06860
H     -3.05804    -1.39138    -0.31630
H     -2.99682    -1.36043    -1.94391
N      2.88344    -0.08214     0.78096
H      2.28217     0.71548     0.57926
H      2.66202    -0.37640     1.72440
H      3.84056     0.24609     0.78178
