 24
-339.6140767667242
N      0.59835    -2.62817    -1.01471
H      1.32726    -3.29471    -1.22864
H      0.60776    -2.47963    -0.00919
H     -0.28701    -3.07003    -1.22841
N      0.63843     1.37279     1.88731
H      1.48180     1.40896     1.32712
H     -0.12304     1.52881     1.23790
H      0.66526     2.15203     2.52906
N      0.56556    -1.95996     2.38717
H      1.41456    -2.28935     2.82714
H      0.62613    -0.94636     2.35275
H     -0.20204    -2.19557     3.00140
N     -2.91952     2.34932    -1.59087
H     -3.22695     3.13148    -1.02565
H     -2.01202     2.05971    -1.24565
H     -2.79095     2.68937    -2.53608
N     -1.14286     0.15021    -0.48095
H     -0.60489    -0.49923    -1.04259
H     -1.07151    -0.18119     0.47322
H     -2.11015     0.09047    -0.76883
N      1.92251     0.84825    -1.25623
H      0.92810     1.04868    -1.23266
H      2.26380     1.10583    -2.17221
H      1.99686    -0.15781    -1.17825
