 36
-509.4293660294237
N     -0.80188     2.16685    -0.87275
H     -0.85759     2.40106     0.12758
H     -0.71905     3.03414    -1.39316
H     -1.69903     1.76949    -1.13396
N     -1.05073     3.14471     1.89547
H     -1.51772     4.03384     1.76463
H     -1.64599     2.56652     2.48390
H     -0.19991     3.34071     2.40936
N      2.78246    -1.24966    -3.14707
H      3.47911    -0.51779    -3.18397
H      3.15013    -2.04775    -3.64674
H      2.69111    -1.52009    -2.17349
N      2.16740    -2.13092     0.13753
H      2.19142    -1.16678     0.45398
H      1.20648    -2.42834     0.23729
H      2.71727    -2.66870     0.79201
N      1.82868     1.18211     1.17736
H      1.56650     1.54514     0.27161
H      0.98398     1.22261     1.72751
H      2.50538     1.81168     1.57925
N     -0.97921    -3.10942    -0.93607
H     -1.05971    -2.23163    -1.44334
H     -0.06259    -3.46433    -1.17780
H     -1.65756    -3.74602    -1.33103
N     -0.57768    -0.24054    -2.74254
H     -1.01236     0.07859    -3.59752
H      0.32889    -0.60859    -3.01042
H     -0.39037     0.57812    -2.17166
N     -2.65511     0.85682     3.20690
H     -2.53820     0.34545     4.07250
H     -2.02884     0.42958     2.52183
H     -3.59893     0.68338     2.88302
N     -0.83456    -0.57958     1.24774
H     -1.25272    -1.47193     1.00466
H     -0.63194    -0.10625     0.37492
H      0.06372    -0.78429     1.67051
