 36
-509.4301512517168
N     -0.12551     1.31716     2.44557
H      0.02418     2.18571     1.94089
H     -0.79044     0.77198     1.90213
H     -0.57465     1.54754     3.32208
N      0.55285     3.79132     0.07871
H     -0.24120     4.38755    -0.11512
H      1.36790     4.38667     0.12923
H      0.66917     3.19217    -0.73197
N      2.34587     0.32017     0.02219
H      1.89983     0.74688     0.82370
H      1.92927     0.75960    -0.78663
H      3.31501     0.59849     0.04353
N      0.33765    -2.34417    -0.97937
H      0.97396    -1.70388    -0.51675
H      0.90712    -2.98933    -1.50897
H     -0.14220    -2.87361    -0.25607
N     -1.05662    -0.42786    -2.72219
H     -0.63153    -1.10186    -2.06771
H     -2.05945    -0.46468    -2.57376
H     -0.90434    -0.79089    -3.65807
N      0.92616    -1.51658     2.36151
H      0.69466    -0.53209     2.49405
H      1.31932    -1.86151     3.22713
H      1.66585    -1.55214     1.66911
N      0.69202     2.12696    -2.95938
H      0.12141     2.79337    -3.46659
H      1.45754     1.88044    -3.57436
H      0.12176     1.29199    -2.83721
N     -2.20483    -0.18062     0.27956
H     -1.96089    -1.15047     0.12967
H     -3.20333    -0.07898     0.16821
H     -1.76437     0.32713    -0.47508
N     -1.41838    -3.13350     1.58203
H     -2.20560    -2.53415     1.79554
H     -1.49026    -3.93999     2.18949
H     -0.58559    -2.59723     1.85986
