 24
-339.6151911157481
N      2.02384    -2.24768    -1.43080
H      2.90126    -2.68848    -1.18646
H      1.41537    -2.33614    -0.62200
H      1.61097    -2.78985    -2.17886
N     -0.29875     1.03514     2.42193
H      0.05863     1.79052     1.85188
H     -1.15989     0.74696     1.96933
H     -0.53820     1.42432     3.32270
N      0.06747    -2.19466     1.37679
H     -0.92645    -2.06887     1.24055
H      0.18240    -2.96700     2.01672
H      0.37721    -1.36120     1.86395
N     -1.14240     2.50634    -1.96134
H     -1.07473     2.40894    -2.96567
H     -1.20266     3.49407    -1.75331
H     -0.26651     2.16979    -1.57189
N     -2.30045    -0.17272    -0.09596
H     -1.48809    -0.70262    -0.38956
H     -3.11365    -0.64595    -0.46514
H     -2.23456     0.71581    -0.58272
N      1.60586     1.12401    -0.40590
H      1.84198     0.31984    -0.97612
H      2.46320     1.64016    -0.26639
H      1.33620     0.75113     0.49642
