 36
-509.4309574578602
N     -2.57712    -0.58261    -0.39478
H     -3.33006    -0.90814    -0.98957
H     -2.42593     0.38676    -0.64728
H     -1.72628    -1.06883    -0.68619
N      0.09790    -1.64002    -1.12937
H      0.21809    -1.23634    -2.05372
H      0.73966    -1.16934    -0.50149
H      0.39085    -2.60581    -1.17885
N      2.44725     0.76794     0.34426
H      2.83854     0.07167     0.98383
H      3.09055     1.54872     0.27711
H      2.40095     0.36490    -0.58629
N      3.24122    -1.26160     2.30422
H      3.64194    -2.15639     2.05058
H      3.60084    -1.02458     3.22103
H      2.23134    -1.38554     2.39087
N     -0.41073     1.99315     0.44186
H     -0.99612     1.20019     0.67492
H     -0.52786     2.65902     1.19590
H      0.55187     1.65299     0.48378
N      0.27698    -1.06540     2.31108
H      0.54019    -0.09864     2.17818
H     -0.25960    -1.34776     1.50088
H     -0.35347    -1.10599     3.10002
N      0.35156    -0.07195    -4.05107
H     -0.45805    -0.26370    -4.62765
H      0.16884     0.80877    -3.57990
H      1.13636     0.07830    -4.67097
N     -3.05058    -1.22834     2.94149
H     -3.42196    -2.16872     2.97085
H     -3.79145    -0.60135     3.22533
H     -2.85074    -1.02601     1.96572
N     -0.36043     3.06849    -2.74934
H     -0.43134     2.74379    -1.79003
H      0.37963     3.75854    -2.76864
H     -1.22425     3.54824    -2.96852
