 24
-339.6074648694175
N      3.73470    -1.83478    -0.79392
H      4.17293    -2.74337    -0.85159
H      4.44634    -1.17231    -0.51821
H      3.05442    -1.87723    -0.04669
N     -1.67718     4.27074     1.21437
H     -2.07449     3.33703     1.26204
H     -1.10247     4.40219     2.03641
H     -2.44032     4.93260     1.26536
N      1.23754    -1.15931    -3.13507
H      0.94448    -0.20413    -2.97647
H      0.52322    -1.75789    -2.74334
H      2.07367    -1.31005    -2.58080
N     -0.88277    -0.24150    -0.56469
H      0.07850    -0.53073    -0.43864
H     -1.13739    -0.46019    -1.51666
H     -0.91097     0.76503    -0.46439
N     -3.00627     1.15805     1.25129
H     -2.41445     0.41462     0.90209
H     -3.28722     0.91102     2.19222
H     -3.84396     1.15407     0.68153
N      0.79239    -2.17640     1.43709
H      0.65904    -3.17870     1.44262
H      1.01499    -1.89610     2.38286
H     -0.09993    -1.76015     1.20434
