 36
-509.4309908629739
N     -0.49942    -0.70167     2.94695
H     -0.08888    -1.60733     2.72966
H     -0.42762    -0.57081     3.94721
H      0.09355    -0.00248     2.50755
N      0.02253     3.90462    -1.99207
H      0.51924     4.66381    -1.54141
H     -0.31844     3.28656    -1.25330
H     -0.77940     4.30898    -2.45889
N      1.70207     1.21124    -1.94778
H      1.21747     2.10165    -2.04422
H      1.16435     0.51693    -2.45260
H      2.58977     1.29685    -2.42830
N      0.98410    -2.05271    -1.06095
H      1.16296    -2.79877    -1.72302
H      0.14516    -1.55371    -1.36376
H      1.76017    -1.40806    -1.14383
N     -0.73865     2.09526     0.26044
H     -1.06570     2.78773     0.92412
H     -1.37167     1.30910     0.35043
H      0.16987     1.77472     0.59036
N     -1.41547    -0.51207    -1.87600
H     -2.05619    -0.55431    -2.65562
H     -1.91778    -0.81819    -1.04727
H     -1.18307     0.46348    -1.71896
N      1.97399     0.55575     0.92005
H      1.88330     0.80124    -0.07446
H      2.92866     0.71871     1.21057
H      1.80780    -0.44074     0.99721
N     -2.96976    -0.98602     1.10548
H     -3.76211    -0.47734     1.47954
H     -3.23022    -1.96642     1.12726
H     -2.20522    -0.88582     1.77176
N      0.90867    -3.51636     1.62926
H      0.40546    -4.39306     1.56387
H      0.80291    -3.04370     0.73173
H      1.89112    -3.75165     1.70643
