 36
-509.4267545139178
N      0.65983     2.68654    -0.41675
H      1.03632     2.52268     0.51126
H      0.35919     3.65282    -0.45374
H     -0.17561     2.12029    -0.50398
N     -0.47282    -0.14192    -1.58408
H     -0.32897    -1.14067    -1.51031
H     -1.47038     0.02369    -1.48871
H     -0.14271     0.17206    -2.48838
N     -0.80509     0.11041     1.36200
H     -0.42674     0.00746     0.41394
H     -0.78136    -0.80672     1.78852
H     -1.78042     0.36733     1.26675
N      2.43181    -0.11510     0.49695
H      2.02341     0.30013    -0.33276
H      2.42392     0.59303     1.22056
H      3.39895    -0.31893     0.28605
N     -3.38370    -0.69835    -0.82372
H     -2.82119    -1.37813    -0.31120
H     -4.31583    -0.70211    -0.43015
H     -3.46572    -1.05820    -1.76617
N      0.96639     2.06339     2.67542
H      1.13368     1.79568     3.63841
H      0.44543     2.93350     2.70723
H      0.33218     1.36382     2.26043
N      1.29589     1.92916    -3.36014
H      0.96113     2.73498    -3.87430
H      1.16792     2.14758    -2.37258
H      2.29525     1.88097    -3.52009
N      1.02465    -2.53801     1.26202
H      1.16467    -2.63834     2.26430
H      1.59451    -3.26945     0.84561
H      1.45897    -1.63692     1.00183
N     -1.71816    -3.22050     0.40001
H     -2.11026    -3.74401     1.17539
H     -1.62741    -3.88486    -0.36127
H     -0.77073    -2.92619     0.67520
