 24
-339.61557646890793
N      0.04573    -1.71048     1.71771
H      0.24079    -2.17761     0.84048
H      0.77192    -1.01235     1.81575
H      0.18262    -2.38904     2.45317
N      0.14427     1.63023     1.45798
H     -0.29819     2.08480     0.66845
H     -0.38997     0.78724     1.63304
H      0.01258     2.23407     2.25627
N      0.97173    -1.57679    -1.59295
H      1.78390    -1.23527    -1.08747
H      1.26844    -1.77487    -2.53871
H      0.33448    -0.79114    -1.63647
N     -2.04460     2.39104    -1.26059
H     -1.88933     2.60392    -2.23776
H     -2.17248     1.38606    -1.18650
H     -2.92261     2.81854    -0.99503
N     -2.25665    -0.95721    -0.64394
H     -1.66971    -1.56849    -1.19594
H     -1.88615    -1.00608     0.29939
H     -3.17743    -1.37152    -0.61785
N      3.11843     0.29879     0.40262
H      3.71465     0.10522     1.19670
H      3.63572     0.91395    -0.21218
H      2.32338     0.83205     0.74512
