 28
-396.2174798288791
N      3.61734    -0.29913     0.36547
H      4.01482     0.42116     0.95638
H      4.31522    -0.53176    -0.33082
H      2.82710     0.11971    -0.12121
N      1.08044     0.85265    -1.07326
H      0.80378     1.78825    -1.34478
H      0.98002     0.28068    -1.90382
H      0.37749     0.52855    -0.42053
N     -0.79671    -1.87616    -0.90177
H     -1.13501    -1.81388     0.04883
H      0.20597    -1.76238    -0.84135
H     -1.14091    -1.05568    -1.38070
N     -3.08307     0.42503    -0.28253
H     -3.19700    -0.44141    -0.79070
H     -2.46537     0.22009     0.49962
H     -3.98996     0.66409     0.09715
N     -0.76386    -0.07593     2.03135
H     -0.04020    -0.78794     1.87158
H     -0.29328     0.82432     1.99255
H     -1.09328    -0.17693     2.98554
N     -1.40010     3.06051    -1.79252
H     -1.84307     3.22366    -2.68694
H     -1.85341     2.25175    -1.37813
H     -1.61533     3.85072    -1.19935
N      1.34297    -2.08511     1.58740
H      1.55170    -2.53063     2.47326
H      1.14222    -2.83481     0.93472
H      2.19740    -1.62420     1.27453
