 24
-339.6134299055456
N      0.94860    -1.57885     1.71003
H      0.73664    -2.11898     0.87777
H      0.85722    -2.19812     2.50452
H      0.21454    -0.88671     1.77641
N     -3.03971     1.56918     1.41900
H     -3.80773     0.93352     1.59575
H     -2.26240     1.01929     1.05579
H     -2.75514     1.95450     2.31130
N      1.16623    -1.87990    -1.73301
H      0.84816    -1.03448    -2.18958
H      2.08791    -1.66444    -1.36419
H      1.28311    -2.58007    -2.45295
N     -2.25492     2.76191    -1.37437
H     -2.99646     2.73240    -2.06397
H     -2.67498     2.55629    -0.47063
H     -1.91861     3.71698    -1.34046
N     -0.75326     0.28544    -0.18728
H     -0.84571    -0.57306    -0.71728
H     -1.06956     1.07033    -0.75004
H      0.23707     0.37837     0.00136
N      3.92742    -1.05402     0.23509
H      4.55225    -1.80477     0.49774
H      4.40257    -0.18129     0.42568
H      3.12391    -1.10266     0.85550
