 36
-509.42733151467706
N     -0.05510     2.70487    -2.30527
H      0.85720     2.27510    -2.21657
H      0.09513     3.68845    -2.47863
H     -0.46417     2.61882    -1.38320
N     -0.52599     1.15678     0.50527
H      0.23312     1.71577     0.86960
H     -0.11834     0.27576     0.22214
H     -1.14225     0.96207     1.28320
N      2.46847    -0.53828    -0.04158
H      3.38264    -0.89223    -0.29786
H      1.92873    -0.40648    -0.90119
H      1.99652    -1.29873     0.44268
N      2.49590     1.31609     2.32756
H      2.45115     0.77977     1.45542
H      3.02809     2.15897     2.14435
H      3.06210     0.76037     2.96005
N     -0.39917     0.41711     3.89659
H     -0.76544     1.22649     4.38241
H      0.40490     0.73562     3.36211
H     -0.03712    -0.21088     4.60223
N     -2.44342     0.46210    -1.73434
H     -1.76308     0.72023    -1.01641
H     -2.28500     1.08293    -2.51760
H     -3.36184     0.68975    -1.37378
N     -2.18414    -2.56841    -1.54969
H     -2.33571    -1.58527    -1.77607
H     -2.40231    -3.12582    -2.36665
H     -2.87304    -2.80728    -0.84515
N     -0.14270    -2.27226     1.23639
H     -0.15179    -3.20094     1.62959
H     -0.54316    -1.64320     1.91906
H     -0.75534    -2.28744     0.42896
N      0.68878    -0.53578    -2.39321
H      0.19542     0.27656    -2.74780
H      1.25187    -0.90062    -3.15110
H     -0.01519    -1.23946    -2.19371
