 12
-169.79732510238048
N      0.46174     2.83350    -0.00413
H      0.13609     3.06576    -0.93456
H      0.70774     1.84632    -0.00750
H     -0.32447     2.94484     0.62444
N      1.32631    -0.42148     0.01848
H      0.49061    -0.99518     0.00474
H      1.89829    -0.69824    -0.76712
H      1.83522    -0.64826     0.86170
N     -1.68957    -2.29081     0.00723
H     -1.70341    -3.05823     0.66541
H     -2.44541    -1.66730     0.25719
H     -1.90356    -2.67118    -0.90480
