 20
-283.00878486404787
N      0.03116     1.08660    -2.04435
H      0.16339     1.99401    -2.46691
H      0.94021     0.75332    -1.74128
H     -0.26682     0.45845    -2.77954
N      2.74116    -0.54119    -0.71411
H      2.08374    -0.82394     0.00839
H      3.16327    -1.38633    -1.07617
H      3.46965    -0.01556    -0.24793
N      0.57542    -1.25990     1.82020
H      0.46662    -0.30321     2.13649
H     -0.30241    -1.49463     1.37482
H      0.65400    -1.83977     2.64349
N     -2.27176    -0.90491    -0.49307
H     -1.54430    -0.28167    -0.83060
H     -2.14315    -1.78981    -0.96689
H     -3.15490    -0.52431    -0.80911
N     -0.98348     1.68837     1.52492
H     -1.64723     0.93259     1.41560
H     -1.51737     2.52856     1.69537
H     -0.53529     1.79184     0.62376
