 24
-339.6103375254492
N     -0.60164    -0.40224     0.78595
H     -0.07125    -0.04883    -0.00149
H     -0.99133     0.41233     1.24352
H      0.07261    -0.80540     1.42524
N      1.52983     2.09204    -0.24468
H      1.65932     1.54033    -1.08432
H      0.53397     2.25334    -0.15895
H      1.96395     2.98945    -0.39874
N      1.37997    -1.08904    -1.70806
H      0.45034    -1.43522    -1.51460
H      1.75638    -1.65359    -2.45592
H      1.92051    -1.28600    -0.87479
N     -1.92826     2.15616    -0.70689
H     -1.98949     2.36510    -1.69549
H     -2.11730     1.16756    -0.61222
H     -2.68387     2.65006    -0.25161
N     -2.96490    -2.59564     0.06363
H     -2.20536    -1.97620     0.33043
H     -3.68322    -2.50702     0.77175
H     -2.61429    -3.54421     0.11584
N      2.82333    -0.41819     1.68918
H      2.87234    -0.22337     2.68187
H      3.77984    -0.48699     1.36491
H      2.43034     0.41259     1.25051
