 36
-509.4289091988754
N     -1.12683     3.76417    -1.49700
H     -1.41662     2.86556    -1.11412
H     -1.44661     4.47121    -0.84579
H     -1.64880     3.90089    -2.35435
N     -1.02141    -0.32707     1.97373
H     -1.49806    -0.20583     2.85757
H     -1.44766    -1.13252     1.51937
H     -0.05621    -0.56849     2.18049
N      1.27960    -1.65821    -0.88708
H      1.89799    -0.85978    -0.83673
H      0.88745    -1.74452     0.04243
H      1.85703    -2.47160    -1.04558
N      2.19287    -1.48141     2.33827
H      2.78697    -0.72974     1.99623
H      2.55200    -1.78091     3.23479
H      2.31985    -2.25120     1.69440
N     -2.29659     1.09883    -0.23219
H     -3.15678     1.49894     0.13163
H     -2.57186     0.24068    -0.69769
H     -1.75218     0.78704     0.57977
N     -2.36600    -2.86389     0.05296
H     -1.90599    -3.76359     0.09680
H     -3.36079    -3.04018     0.08928
H     -2.16812    -2.47938    -0.86740
N     -1.46470    -1.06465    -2.71141
H     -0.54277    -1.22945    -2.31770
H     -1.41809    -1.25466    -3.70285
H     -1.63380    -0.07461    -2.59705
N      3.79414     0.89581     0.91502
H      4.45317     0.95708     0.14755
H      2.87081     1.15687     0.55688
H      4.06140     1.61333     1.58002
N      1.08597     1.56749    -0.03895
H      1.07935     2.45728    -0.52087
H      0.60351     0.90236    -0.63306
H      0.50211     1.67093     0.78082
