 28
-396.2196100388029
N      2.51326    -1.11805    -0.48153
H      2.20919    -1.75112     0.24865
H      3.25184    -1.59112    -0.98745
H      1.70682    -1.02297    -1.11165
N      0.12840    -1.06277    -2.22652
H     -0.49381    -1.71425    -1.75732
H      0.33726    -1.44627    -3.13850
H     -0.40260    -0.20908    -2.36953
N      1.36411     1.78833    -0.31512
H      1.89711     2.62137    -0.53620
H      0.72088     1.64880    -1.08583
H      2.00916     1.00107    -0.32868
N     -1.86815     1.26011    -1.19373
H     -1.51091     1.65159    -0.33240
H     -2.76057     1.69914    -1.36871
H     -2.05594     0.28543    -0.99602
N     -1.98999    -2.30220     0.14343
H     -1.77354    -3.28448     0.27285
H     -1.26662    -1.77403     0.63683
H     -2.85713    -2.14027     0.64405
N     -0.26265     2.23382     2.09039
H      0.25251     1.99749     2.93265
H      0.36759     2.05411     1.29574
H     -0.44051     3.23066     2.13508
N      0.06643    -0.78309     1.77375
H      0.16051    -1.26911     2.65620
H      0.99202    -0.48418     1.49527
H     -0.44983     0.07216     1.95853
