 24
-339.6083867991066
N      1.03747    -0.62547    -1.20096
H      1.90100    -0.43180    -0.70649
H      1.18225    -0.33167    -2.15840
H      0.32865    -0.01574    -0.80959
N     -0.16563     2.73522     2.15564
H     -0.69992     2.33045     1.38985
H     -0.26591     2.11317     2.94911
H     -0.62585     3.60352     2.39988
N     -0.15874    -3.60013     0.00495
H      0.15725    -4.39933    -0.52890
H      0.37858    -2.79967    -0.31562
H      0.10498    -3.75802     0.96882
N     -2.15123     1.77027    -0.27072
H     -3.06099     1.97877     0.13081
H     -2.12161     2.25998    -1.15987
H     -2.15064     0.76742    -0.48025
N     -2.13990    -1.09319    -1.01340
H     -1.28950    -1.34586    -1.50521
H     -2.23868    -1.78181    -0.27661
H     -2.91089    -1.23574    -1.65342
N      3.80848     0.83401     0.26067
H      4.38931     1.47017    -0.26972
H      3.02817     1.37880     0.61417
H      4.33878     0.52845     1.06590
