 32
-452.8281374233498
N     -0.38274     3.26699    -0.03568
H     -1.26207     3.60722     0.34166
H      0.12434     4.08457    -0.35553
H     -0.60922     2.69950    -0.85823
N     -3.49077    -0.39305    -1.22306
H     -3.99098    -1.12405    -1.71092
H     -2.90898    -0.83803    -0.51974
H     -4.17397     0.16494    -0.72745
N      2.12298     0.42933    -1.04781
H      2.90817     0.86974    -1.50438
H      1.45870     1.16177    -0.83141
H      2.45949     0.08241    -0.15629
N     -0.87462     1.51529    -2.35293
H     -1.71132     1.00363    -2.08442
H     -1.02752     1.89383    -3.27901
H     -0.13028     0.83005    -2.41731
N      0.84873    -2.75047    -1.05448
H      1.25067    -1.84638    -1.28512
H      1.08654    -3.39116    -1.79810
H     -0.15296    -2.61395    -1.07162
N      0.57124     1.21037     2.45423
H      0.28852     1.86133     1.72796
H      0.57735     1.71687     3.32840
H      1.52844     0.95238     2.24655
N     -1.38329    -1.52745     1.22534
H     -0.57444    -2.04759     0.91255
H     -1.03722    -0.61015     1.48454
H     -1.71301    -1.96496     2.07383
N      2.38506    -1.50992     1.86331
H      2.88230    -1.99911     2.59470
H      2.12418    -2.19966     1.16797
H      1.52028    -1.16922     2.26433
