 12
-169.7990142472057
N     -0.26894     1.44677     0.00681
H     -1.22922     1.12769    -0.03385
H     -0.18335     2.04857     0.81586
H     -0.10776     2.02239    -0.81023
N      2.52814    -0.47664    -0.00103
H      2.63044    -0.99294     0.86297
H      1.62446    -0.01395     0.01010
H      2.53520    -1.14150    -0.76352
N     -2.48013    -0.93688    -0.02171
H     -2.85714    -1.40831     0.78913
H     -2.73586    -1.47029    -0.84150
H     -1.47264    -0.97108     0.05444
