 24
-339.6099224053564
N     -1.82405    -1.97458     0.38407
H     -1.65133    -2.62830     1.13724
H     -0.93039    -1.60686     0.07794
H     -2.19219    -2.51136    -0.39278
N      0.31701    -0.25562    -1.00333
H      0.49455    -0.50871    -1.96939
H     -0.61530     0.13847    -0.96072
H      0.97237     0.46901    -0.73382
N      1.91754    -2.48338    -2.77763
H      1.62577    -3.45102    -2.81881
H      1.80151    -2.17511    -1.82103
H      2.90656    -2.44755    -2.98724
N      2.32244     0.85799     1.08476
H      3.18704     0.41609     1.36497
H      2.15118     1.62919     1.71881
H      1.57933     0.18407     1.21164
N     -4.08760     0.42544     1.09088
H     -3.40699    -0.30854     0.91584
H     -3.80763     0.89970     1.93986
H     -4.97788    -0.02011     1.27134
N      1.70533     4.03030     1.19440
H      2.32520     4.81357     1.03617
H      1.89773     3.34227     0.47863
H      0.75662     4.35247     1.05274
