 28
-396.22015400194147
N      3.19531    -0.63446     0.18762
H      2.34205    -1.16886     0.37889
H      3.70304    -1.14220    -0.52977
H      3.77284    -0.67302     1.02061
N     -2.24529    -0.62928     1.25287
H     -2.66291     0.28126     1.09736
H     -2.97643    -1.23441     1.59960
H     -1.99025    -0.97568     0.33591
N      0.75197    -2.22970     0.72734
H      0.07689    -1.88779     1.40204
H      0.25297    -2.33048    -0.15256
H      1.03279    -3.15416     1.02884
N     -2.22886     2.58187    -0.03633
H     -2.41707     3.52577    -0.34533
H     -1.89221     2.05886    -0.83417
H     -1.45790     2.61864     0.62298
N     -0.82715    -1.48090    -2.16968
H     -0.31411    -0.63496    -1.90684
H     -0.24871    -1.96855    -2.84599
H     -1.65951    -1.18967    -2.67079
N      0.43237     1.53075     1.73459
H     -0.17322     0.72275     1.82322
H      1.28367     1.19710     1.29965
H      0.67451     1.82547     2.67051
N      0.79163     0.95076    -1.53897
H      0.94000     1.49876    -2.37647
H      0.50770     1.59224    -0.80665
H      1.69833     0.58559    -1.25594
