 24
-339.6097825375206
N      1.04020    -0.56108    -1.28364
H      1.97376    -0.58397    -0.88377
H      1.15008    -0.42900    -2.28073
H      0.55756     0.25114    -0.90730
N     -0.25554     3.05765     1.78434
H     -0.57026     2.44616     1.03418
H     -0.70640     2.73844     2.63265
H     -0.62129     3.97894     1.58008
N     -0.21383    -3.18888    -0.16987
H      0.09120    -3.93132    -0.78802
H      0.12521    -2.31005    -0.56453
H      0.27477    -3.31173     0.70991
N     -1.42943     1.41626    -0.75525
H     -2.27170     1.98444    -0.77520
H     -1.07351     1.41437    -1.70442
H     -1.72472     0.45396    -0.54718
N     -2.60008    -1.23907    -0.16600
H     -1.96607    -2.03087    -0.07249
H     -3.17002    -1.19777     0.67136
H     -3.22660    -1.44954    -0.93502
N      3.70080     0.42301     0.56205
H      2.82257     0.91818     0.66611
H      3.95295     0.08893     1.48277
H      4.38782     1.10962     0.27944
