 36
-509.42961629215665
N     -1.46593     1.95588    -0.48783
H     -2.04581     1.17268    -0.21023
H     -2.06220     2.59230    -1.00684
H     -0.75470     1.59050    -1.12699
N     -0.58442     3.69102     1.81869
H     -0.84457     3.09290     1.03209
H     -1.45096     4.02730     2.22266
H     -0.11492     4.50203     1.43235
N      0.38538    -3.35285    -1.68727
H      0.58276    -3.63529    -2.64070
H      0.15226    -4.20240    -1.18298
H     -0.46224    -2.77869    -1.69548
N      3.08691     0.89125    -0.21256
H      2.78237    -0.05083     0.02305
H      4.09664     0.91509    -0.18508
H      2.74155     1.50634     0.51281
N      0.39513     0.67727     1.99437
H      1.30753     0.26083     2.11141
H      0.33279     1.03290     1.04886
H      0.30423     1.48135     2.60248
N      0.66296     0.53026    -2.09639
H      0.53852    -0.47237    -1.99982
H      0.86385     0.69251    -3.07563
H      1.51195     0.76317    -1.58510
N      1.88669    -2.05481     0.83195
H      2.27237    -2.78784     1.41103
H      1.03985    -1.73253     1.28631
H      1.57831    -2.48810    -0.03480
N     -2.12632    -0.81428     1.48815
H     -1.26922    -0.27882     1.66228
H     -2.87152    -0.32210     1.97035
H     -2.02571    -1.69761     1.97721
N     -1.98935    -1.52715    -1.65586
H     -2.89651    -1.76445    -2.03714
H     -2.09357    -1.38450    -0.65235
H     -1.72495    -0.63123    -2.04660
