 24
-339.6101239752669
N     -0.62653    -0.35508     0.73826
H     -0.72246     0.64210     0.59246
H     -1.03854    -0.55736     1.64097
H      0.36437    -0.56153     0.82734
N      1.24586     2.67237     0.82250
H      0.85711     2.47352     1.73459
H      0.48184     2.98671     0.24118
H      1.53777     1.77910     0.45319
N      1.43550    -1.62411    -1.62676
H      0.57195    -1.29685    -1.21148
H      1.51332    -1.18646    -2.53454
H      1.33116    -2.61799    -1.77872
N     -1.76878     2.09969    -1.16441
H     -1.50551     2.26714    -2.12517
H     -1.91705     1.10394    -1.07475
H     -2.66008     2.54811    -1.00791
N     -3.02061    -2.42394     0.26135
H     -2.22221    -1.80051     0.31036
H     -3.62972    -2.20944     1.04086
H     -2.68011    -3.36757     0.39770
N      2.83621    -0.31783     1.12365
H      3.43929    -0.84775     1.73546
H      2.87898    -0.73522     0.20093
H      3.20658     0.62005     1.06286
