 36
-509.42938528605686
N      0.94717     0.92285    -2.51012
H      1.07434     1.68580    -3.16373
H      0.13695     1.13435    -1.92563
H      1.74458     0.93819    -1.88630
N      0.22087     2.79027     1.89252
H      0.07454     2.98074     0.90764
H      1.16285     2.41102     1.97945
H      0.21066     3.68966     2.35879
N      1.57087    -0.79402     0.30176
H      1.30890    -0.83185    -0.67793
H      0.77888    -1.18527     0.82213
H      2.33704    -1.45091     0.40397
N      2.97210     1.25508     1.94848
H      3.90891     1.36397     1.58134
H      3.05422     0.80214     2.85114
H      2.45183     0.61925     1.33837
N     -1.83935     0.99851     3.03968
H     -2.56796     1.60829     3.39106
H     -1.43306     0.54447     3.85063
H     -1.10454     1.58793     2.63290
N     -1.15476     1.02581    -0.39759
H     -1.57017     0.19212    -0.78762
H     -0.30634     0.72675     0.06736
H     -1.76972     1.37092     0.32294
N     -2.10081    -2.36887    -1.77346
H     -2.88684    -1.83112    -2.11846
H     -1.34158    -2.23026    -2.43463
H     -2.37030    -3.34254    -1.83258
N     -0.95659    -1.83886     1.41086
H     -1.28080    -2.58988     2.00357
H     -1.42508    -0.99206     1.71862
H     -1.27914    -2.03310     0.46622
N      0.17948    -1.84288    -3.86821
H      1.01806    -2.41031    -3.90663
H     -0.11806    -1.66832    -4.82093
H      0.43823    -0.94424    -3.46044
