 24
-339.606602914586
N      1.21464     0.69803     0.37971
H      2.11207     0.41132     0.75079
H      1.34991     1.59463    -0.07084
H      0.58176     0.85479     1.15982
N     -1.59619     1.73288     2.03165
H     -2.02533     1.69038     1.11204
H     -2.11281     1.10293     2.63386
H     -1.74694     2.66894     2.38827
N     -2.86058    -2.00006    -0.96024
H     -3.16350    -1.13590    -0.53152
H     -1.86949    -1.89909    -1.16625
H     -3.36210    -2.11914    -1.83033
N     -1.96943     1.43110    -1.17725
H     -1.10587     1.06445    -0.79413
H     -2.38440     0.65995    -1.68201
H     -1.71238     2.11661    -1.87436
N      0.46097    -1.63041    -1.41320
H      0.98790    -1.50657    -2.27056
H      0.73878    -0.88203    -0.77735
H      0.77817    -2.50314    -1.00176
N      4.58893    -0.27629     1.14453
H      4.89729     0.03392     2.05685
H      4.66094    -1.28550     1.13165
H      5.24929     0.07987     0.46572
