 40
-566.0399880873213
N     -1.34814     1.58279    -1.52980
H     -1.81797     0.83193    -1.02001
H     -1.99775     1.95769    -2.20716
H     -0.60470     1.13610    -2.05131
N     -0.11176    -2.12863     1.61208
H     -1.02243    -1.93174     2.00766
H     -0.23417    -2.23120     0.61141
H      0.18168    -3.02873     1.96333
N     -1.27524    -3.04610    -1.67446
H     -1.55709    -4.01724    -1.69360
H     -1.96059    -2.52960    -2.20989
H     -0.39794    -2.95826    -2.17789
N     -2.66855    -0.68758    -0.10350
H     -3.65972    -0.79182    -0.27381
H     -2.21277    -1.54752    -0.40053
H     -2.54401    -0.61325     0.90200
N     -2.14594     0.33772     2.95317
H     -2.64288     0.62302     3.78595
H     -1.14961     0.47142     3.10715
H     -2.40804     0.98502     2.22055
N      0.91404     0.39823     2.77086
H      1.30747     0.96116     2.02606
H      1.66983     0.18325     3.40799
H      0.59901    -0.47663     2.34102
N      1.42927    -0.27918    -0.75114
H      0.67592     0.36798    -0.54862
H      1.63941    -0.76642     0.11098
H      2.25092     0.26518    -0.98917
N      0.41302     3.22734     0.85727
H     -0.23671     2.85335     0.17286
H      0.20613     2.77088     1.73582
H      0.19756     4.20666     0.96981
N      3.37069     2.54753    -0.89537
H      3.30223     3.16320    -1.69367
H      2.53810     2.70302    -0.33716
H      4.15977     2.84992    -0.34145
N      1.36152    -2.27665    -3.02496
H      1.29303    -1.57969    -2.28215
H      1.51443    -1.78414    -3.89625
H      2.19708    -2.81845    -2.83833
