 24
-339.6097824272727
N      0.44774     0.35441    -0.90475
H      1.34048     0.36894    -1.38883
H     -0.25482     0.62578    -1.58908
H      0.51091     1.07674    -0.19895
N      2.09224     3.09791     2.81544
H      2.77939     2.99172     3.55107
H      1.30651     3.60268     3.20754
H      1.76563     2.16504     2.57756
N     -0.72164    -2.24736    -2.01613
H     -0.03956    -2.94570    -2.27712
H     -0.26019    -1.54740    -1.43790
H     -1.42657    -2.70102    -1.45117
N     -1.45661     0.54038    -3.26056
H     -1.37655    -0.46365    -3.11765
H     -2.43814     0.76280    -3.36590
H     -1.00279     0.75703    -4.13932
N     -1.58760    -1.64644     1.26873
H     -2.59197    -1.73429     1.33932
H     -1.39800    -0.92074     0.59096
H     -1.22654    -2.50259     0.87281
N      1.23378     0.00177     2.11237
H      0.41179    -0.34706     2.59051
H      1.15720    -0.32755     1.15555
H      2.03598    -0.45993     2.52597
