 20
-283.0080931687233
N      0.98824     2.39680    -0.81144
H      0.87859     2.15082    -1.78926
H      0.08273     2.23980    -0.37207
H      1.17854     3.39101    -0.76877
N      0.84073    -2.48014    -0.34727
H      0.90927    -2.45015    -1.35952
H      1.39449    -1.69841     0.00209
H      1.29315    -3.33618    -0.04590
N      2.45349    -0.02089     0.71213
H      2.13663     0.08678     1.67057
H      3.45467     0.13785     0.70709
H      2.01662     0.73319     0.18271
N     -2.27360    -1.63112    -0.03150
H     -2.67708    -1.95334    -0.90320
H     -1.28598    -1.87807    -0.05461
H     -2.69856    -2.17763     0.70863
N     -1.98445     1.75595     0.51189
H     -2.87688     2.06494     0.14848
H     -2.01970     1.85471     1.51846
H     -1.91845     0.75944     0.31985
