 24
-339.6091576524234
N      1.30148     1.66493     0.63403
H      2.14035     1.13908     0.84189
H      1.46631     2.61177     0.94282
H      0.56891     1.28368     1.21977
N     -2.03845     0.42031     1.70523
H     -2.08978     0.70000     0.72780
H     -2.72541    -0.31330     1.82799
H     -2.35361     1.21171     2.25095
N     -2.48251    -1.89533    -2.34388
H     -3.12093    -2.64992    -2.12984
H     -1.62617    -2.05731    -1.82049
H     -2.88300    -1.04891    -1.95875
N     -1.45411     1.33434    -1.50052
H     -0.58240     1.74538    -1.18540
H     -1.20013     0.48144    -1.98318
H     -1.84758     1.95768    -2.19189
N      0.26513    -1.44868    -0.45085
H      0.81905    -0.63657    -0.68806
H     -0.23922    -1.18067     0.38544
H      0.92096    -2.16739    -0.17873
N      4.38689     0.01803     1.71359
H      4.97673     0.72514     2.13135
H      4.21576    -0.68449     2.42034
H      4.91975    -0.41880     0.97371
