 24
-339.61285768219534
N     -0.34247    -1.81609     0.91886
H      0.28510    -1.96131     0.13665
H     -0.31196    -0.82647     1.12745
H      0.01757    -2.31581     1.71746
N      0.91121     2.95410     0.71435
H      0.18844     2.35088     0.33442
H      0.52715     3.40178     1.53670
H      1.08092     3.67976     0.02970
N      1.50976    -0.96164    -1.84191
H      1.82267    -1.38560    -2.70468
H      1.14306    -0.04760    -2.07347
H      2.32744    -0.77605    -1.27176
N     -1.27761     0.95378    -0.77478
H     -1.54042     1.44445    -1.61922
H     -0.84621     0.08273    -1.05777
H     -2.14492     0.69559    -0.31648
N     -3.66029    -1.32552     0.24290
H     -2.72388    -1.67114     0.43496
H     -4.22530    -1.52981     1.05734
H     -4.01958    -1.88015    -0.52353
N      3.04340     0.23033     0.90547
H      2.34123    -0.38966     1.28767
H      3.78546     0.30093     1.58880
H      2.59910     1.14051     0.84234
