 24
-339.61356517971893
N      1.99700    -0.94405     0.42585
H      2.81743    -1.44680     0.73813
H      1.26317    -1.06776     1.11648
H      1.66663    -1.38983    -0.42239
N     -0.53101    -0.35806     2.33969
H      0.11814     0.37127     2.07433
H     -1.31566    -0.26025     1.70240
H     -0.85580    -0.14608     3.27207
N     -0.47149    -3.15101    -0.21298
H     -1.03892    -3.98782    -0.19408
H      0.38912    -3.37940     0.26809
H     -0.93344    -2.47075     0.37765
N     -1.00378     2.74514    -1.30681
H     -1.03846     3.07191    -2.26320
H     -1.21552     3.53243    -0.70894
H     -0.04180     2.48089    -1.11710
N     -2.40301    -0.32212    -0.44722
H     -2.02200    -1.03188    -1.05886
H     -3.39278    -0.25368    -0.63646
H     -1.98058     0.55777    -0.72838
N      2.35025     2.10423    -0.74890
H      2.27427     1.19168    -0.30986
H      2.89247     1.97792    -1.59475
H      2.89576     2.69227    -0.13103
