 24
-339.6119864665402
N      0.39924    -4.49274     0.09847
H      0.13668    -3.66359    -0.41987
H      0.58796    -5.22328    -0.57640
H     -0.40621    -4.77834     0.64144
N      0.96502     1.71664    -1.38108
H      0.09081     2.23308    -1.41174
H      1.57542     2.12987    -2.07131
H      0.73984     0.78297    -1.70054
N      1.30862    -1.51752    -0.43387
H      2.08937    -1.34048    -1.05401
H      1.22613    -0.69139     0.14675
H      1.57627    -2.28473     0.16928
N     -2.33578     2.72090    -0.98220
H     -3.12723     2.54823    -1.58840
H     -2.22540     1.89682    -0.39638
H     -2.57864     3.48723    -0.36813
N     -1.64514    -0.08852     0.83374
H     -1.22489    -0.79099     0.24154
H     -0.89856     0.25758     1.42591
H     -2.30810    -0.56252     1.42926
N      1.29677     1.49721     1.97786
H      2.26022     1.31890     2.23074
H      1.28846     1.75829     0.99467
H      0.99696     2.31087     2.49878
