 36
-509.42623362933955
N     -2.92158    -0.04041    -1.13084
H     -3.27869     0.41389    -1.96491
H     -3.72438    -0.18652    -0.52917
H     -2.30208     0.63731    -0.66878
N     -2.39812     5.11835     1.16656
H     -1.60825     5.73071     1.01018
H     -3.17097     5.47202     0.61891
H     -2.65035     5.19316     2.14283
N      2.85153    -2.34924    -0.32146
H      2.36950    -3.18082     0.00650
H      2.44314    -2.07875    -1.20661
H      3.81721    -2.58797    -0.49228
N      0.78127    -4.28490     1.26616
H     -0.03550    -4.74948     0.88912
H      0.91540    -4.63160     2.20769
H      0.53281    -3.29804     1.34575
N     -1.08607     1.80980     0.22206
H     -0.39976     2.08550    -0.47274
H     -1.61494     2.62970     0.48879
H     -0.57649     1.50048     1.03908
N     -0.40906    -1.40619     1.54671
H     -1.09127    -1.06269     0.88235
H     -0.89335    -1.49217     2.43186
H      0.30753    -0.68769     1.64555
N      1.33673     1.59631    -2.21356
H      0.89634     0.68158    -2.06485
H      0.93204     1.97663    -3.06145
H      2.31233     1.41594    -2.42263
N      1.95597     0.47469     1.29892
H      2.72206     0.89594     1.80380
H      2.25672    -0.45430     1.01454
H      1.83494     1.00799     0.44611
N      0.07742    -1.05928    -1.84951
H     -0.93063    -0.92860    -1.79369
H      0.24962    -1.73506    -2.58442
H      0.37326    -1.49677    -0.98114
