 24
-339.61263718639526
N      2.37987    -1.40409    -0.40932
H      2.95741    -2.13819    -0.80356
H      2.91408    -0.54493    -0.48411
H      2.26986    -1.60424     0.58330
N     -1.22738     3.03395     0.97130
H     -0.43741     3.66464     0.92124
H     -1.28574     2.56456     0.07076
H     -2.05999     3.60293     1.05720
N     -0.05248    -1.27450    -2.08426
H      0.36518    -1.19320    -3.00722
H      0.72804    -1.29833    -1.41718
H     -0.49409    -2.18809    -2.05772
N     -1.49796     1.60441    -2.13094
H     -2.43857     1.38238    -2.43372
H     -1.06637     2.14469    -2.87041
H     -0.99357     0.72250    -2.07124
N     -1.00731    -0.38515     1.30446
H     -1.92653    -0.65662     1.63151
H     -0.91844     0.60770     1.50323
H     -1.01341    -0.47694     0.29457
N      1.54661    -1.76347     2.51794
H      1.26433    -2.63572     2.94989
H      1.81139    -1.12679     3.26100
H      0.72292    -1.36556     2.06495
