 24
-339.6126880841758
N      2.73367    -0.42140    -0.83435
H      1.97293     0.00782    -1.35381
H      3.51303     0.22393    -0.85140
H      3.01415    -1.24736    -1.34604
N      1.08869     2.80328     2.59126
H      2.08173     2.95832     2.71025
H      0.97076     2.33801     1.70114
H      0.63784     3.70585     2.51624
N     -1.07151    -2.44743    -1.92223
H     -0.27226    -1.82570    -1.89183
H     -1.24896    -2.71149    -0.96094
H     -0.78638    -3.28384    -2.41267
N     -0.29341     0.84915    -1.81259
H     -0.46649     0.82723    -0.81171
H     -0.51989     1.77592    -2.14401
H     -0.95124     0.20733    -2.23515
N     -2.82828    -1.45451     0.47936
H     -2.36029    -0.56360     0.60370
H     -2.91264    -1.59546    -0.51973
H     -3.76276    -1.35626     0.85249
N     -0.00070    -0.05543     1.46168
H      0.17107     0.47991     2.30148
H     -0.57408    -0.84919     1.70870
H      0.88719    -0.41853     1.13578
