 12
-169.7945762914898
N     -0.25133     1.59891    -0.11097
H      0.59325     1.11737     0.15608
H     -1.01604     0.94128    -0.07229
H     -0.14651     1.88160    -1.07384
N      2.96908    -0.31489     0.11273
H      2.83260    -1.17994     0.61707
H      3.29528    -0.55169    -0.81414
H      3.70966     0.19435     0.57518
N     -2.78891    -1.05284     0.04318
H     -2.78229    -1.25809     1.03291
H     -3.73391    -0.79825    -0.20949
H     -2.55698    -1.90582    -0.44699
