 20
-283.0064013411992
N      0.69117     2.59981     0.09833
H      1.02912     3.07345    -0.73269
H     -0.32385     2.58062     0.02480
H      0.92147     3.19673     0.88570
N      0.99175    -3.59585    -0.28054
H      0.13544    -3.61757     0.25507
H      1.26312    -2.62183    -0.34176
H      0.76788    -3.90586    -1.21619
N      2.07952    -0.21201    -0.06972
H      2.63709    -0.15057    -0.91502
H      1.58485     0.67299     0.01697
H      2.73162    -0.26915     0.70487
N     -1.33766    -1.00236     0.47663
H     -0.34510    -0.81996     0.57756
H     -1.65466    -1.42479     1.33940
H     -1.41620    -1.69957    -0.25068
N     -2.42066     2.13609    -0.15852
H     -2.91908     2.10683    -1.03980
H     -2.05246     1.20251     0.00934
H     -3.09747     2.32814     0.57038
