 24
-339.60468019121
N      0.49988    -2.40189     2.46324
H      0.34190    -1.85744     3.30120
H      0.45586    -1.75249     1.68445
H     -0.28142    -3.03607     2.36062
N     -3.75452     2.22948     1.11810
H     -3.00029     1.72261     1.56143
H     -4.04798     2.95040     1.76350
H     -4.52678     1.58809     0.99753
N      1.75914    -1.90901    -2.29892
H      2.49468    -1.70751    -2.96557
H      2.21087    -2.08006    -1.40193
H      1.32460    -2.77826    -2.58472
N     -2.06955     3.90728    -1.44807
H     -2.24160     3.47321    -2.34540
H     -2.59403     3.39297    -0.74992
H     -2.44422     4.84597    -1.48833
N      0.53381     0.09515    -0.06858
H      0.87476    -0.44817    -0.86066
H     -0.46152     0.20437    -0.21509
H      0.90733     1.03183    -0.16732
N      3.19154    -2.06768     0.58379
H      4.17309    -2.08515     0.82054
H      2.84170    -1.14673     0.82101
H      2.71393    -2.70383     1.21220
