 24
-339.6119849965682
N     -1.42787    -3.42260     0.88600
H     -1.45224    -2.76424     0.11390
H     -1.27639    -4.34177     0.49124
H     -2.34758    -3.42231     1.30643
N      1.25623    -1.11723     1.61775
H      0.88499    -0.18884     1.44198
H      0.49410    -1.68898     1.95855
H      1.93133    -1.03587     2.36580
N      0.34483     2.11248     0.63281
H      0.82386     2.65549    -0.07331
H     -0.62772     2.03310     0.35588
H      0.36620     2.64921     1.48904
N     -0.44261    -1.09481    -1.26874
H     -0.32207    -0.10168    -1.11433
H      0.15883    -1.54849    -0.58881
H     -0.06396    -1.29568    -2.18366
N     -2.73059     1.06905    -0.55076
H     -3.47434     0.91779     0.11733
H     -2.31861     0.16351    -0.75054
H     -3.15376     1.40508    -1.40557
N      3.00397     2.41836    -1.25819
H      2.62580     1.70789    -0.64518
H      3.88237     2.71691    -0.85567
H      3.20727     1.96657    -2.13990
