 24
-339.60905354165646
N      0.67677    -5.04512    -0.51808
H      0.83081    -5.59953     0.31376
H      1.39208    -5.29040    -1.18979
H      0.82508    -4.07811    -0.26295
N     -1.13472     2.62342     1.60522
H     -1.17315     3.40686     2.24313
H     -0.18874     2.26369     1.64185
H     -1.25345     3.00100     0.67132
N     -1.22524    -2.44974    -0.54406
H     -1.44579    -1.93495    -1.38835
H     -1.16374    -3.43278    -0.78077
H     -2.01544    -2.33611     0.08009
N     -0.36215     3.50635    -1.60182
H      0.35533     2.90186    -1.21029
H     -0.74113     3.02703    -2.40793
H      0.10375     4.34140    -1.93219
N      0.01549    -0.44066     1.40555
H     -0.24278    -1.15513     0.73255
H      0.07771    -0.87895     2.31611
H     -0.73719     0.24041     1.45331
N      2.11603     1.46675    -0.30966
H      2.61750     0.96214    -1.02895
H      2.80550     1.81267     0.34484
H      1.54595     0.78536     0.18731
