 36
-509.42839897159416
N     -1.78951    -1.48808    -1.31477
H     -1.90399    -1.54464    -2.32041
H     -2.53513    -2.05681    -0.92657
H     -1.97540    -0.51017    -1.04124
N      0.41244     1.64996     3.55758
H      0.72250     2.61341     3.51665
H      1.02617     1.16110     4.19727
H      0.54981     1.25841     2.62368
N      0.79732     2.45499    -1.79855
H      0.52961     2.89692    -2.67086
H      1.64257     2.92933    -1.49712
H      1.06059     1.49014    -2.02250
N      0.45710    -2.51250     0.70664
H      0.53040    -1.76590     1.38629
H     -0.24401    -2.20277     0.03286
H      0.07482    -3.31255     1.19465
N      0.48595     0.61069     0.72385
H      1.20284    -0.00597     0.36124
H     -0.39378     0.11803     0.63300
H      0.44063     1.41120     0.09892
N     -2.39541     1.35346     2.46899
H     -1.46786     1.43766     2.88417
H     -2.93282     2.15976     2.76695
H     -2.84600     0.54299     2.87852
N      1.37608    -0.36289    -2.54354
H      2.13712    -0.98840    -2.29933
H      0.53482    -0.73521    -2.11665
H      1.25418    -0.42952    -3.54481
N     -2.34014     1.24961    -0.53078
H     -1.67125     1.89061    -0.94256
H     -3.25953     1.55918    -0.82461
H     -2.28618     1.35709     0.48678
N      3.18468    -3.01873    -1.21797
H      3.98980    -2.99731    -0.60552
H      2.36039    -2.92465    -0.63071
H      3.14599    -3.93921    -1.63578
