 28
-396.2165895403373
N      2.69019    -2.45554    -1.17806
H      2.41865    -3.39071    -1.44602
H      2.48660    -2.33892    -0.19064
H      2.10241    -1.80260    -1.67703
N     -1.40326     3.19969     0.78731
H     -2.04126     2.56887     0.31022
H     -1.97254     3.87741     1.27696
H     -0.91205     3.70220     0.05951
N      2.15990    -1.42279     1.98997
H      1.33073    -0.83975     1.90055
H      1.90064    -2.21266     2.56947
H      2.85422    -0.89761     2.50873
N     -0.63358     0.03248     1.75001
H     -1.13147    -0.38493     2.52637
H     -0.79416     1.03270     1.80998
H     -1.09100    -0.28463     0.90272
N     -0.88262    -1.04606    -1.71278
H     -0.92645    -1.33418    -2.68178
H     -0.19600    -0.29862    -1.65061
H     -0.47419    -1.81590    -1.19795
N      1.68671     0.81583    -0.74019
H      1.15079     1.11065     0.06632
H      2.36952     0.15545    -0.38921
H      2.20166     1.62404    -1.06008
N     -3.52480     1.00054    -0.87148
H     -3.87789     1.41853    -1.72218
H     -2.81717     0.32643    -1.14583
H     -4.28660     0.48166    -0.45593
