 24
-339.6096205098569
N      0.74091    -2.75697     1.52100
H      1.38868    -3.41406     1.93296
H      0.51142    -3.09039     0.59500
H      1.23892    -1.88717     1.39091
N      0.06647     0.47026     1.27977
H     -0.69499     0.92570     0.79194
H     -0.27549    -0.40669     1.65270
H      0.30020     1.05208     2.07533
N      1.89944    -1.57942    -1.55034
H      2.60477    -0.85974    -1.46079
H      1.08044    -1.24762    -1.06177
H      2.23883    -2.39353    -1.05913
N     -1.69698     1.77493    -0.93231
H     -0.93643     1.18107    -1.23724
H     -2.55188     1.38907    -1.31635
H     -1.54672     2.68466    -1.34723
N     -4.66790     0.60630    -0.29817
H     -5.51634     1.10587    -0.06767
H     -4.80660    -0.36909    -0.06927
H     -3.93789     0.95416     0.30920
N      3.12898     1.30776    -0.13317
H      3.75912     1.47477     0.63945
H      3.02547     2.17863    -0.63693
H      2.22166     1.07687     0.25744
