 40
-566.0396738808063
N     -1.93981     1.30481    -2.02173
H     -2.39884     0.76477    -1.29312
H     -2.66142     1.80443    -2.52517
H     -1.55410     0.62740    -2.66618
N     -0.24066    -2.49996     1.90198
H     -0.82193    -1.83586     2.40380
H     -0.65436    -2.60002     0.98404
H     -0.34874    -3.39172     2.36121
N     -0.63094    -2.58649    -1.82234
H     -0.93805    -3.47674    -2.18758
H     -0.52892    -1.95655    -2.61319
H      0.30940    -2.71915    -1.46956
N     -2.93253    -0.84170    -0.07186
H     -3.78915    -1.36474    -0.18967
H     -2.21537    -1.29354    -0.63558
H     -2.65276    -0.91932     0.89866
N     -1.72990     0.31970     2.75445
H     -0.71734     0.44845     2.73108
H     -2.11515     0.79383     1.94700
H     -2.09103     0.79535     3.56900
N      1.21154     0.34005     2.62074
H      1.02535    -0.61016     2.31273
H      1.87204     0.74139     1.96720
H      1.67654     0.28476     3.51797
N      1.97634    -1.13358    -0.48861
H      1.02686    -0.80102    -0.60867
H      1.95227    -1.74743     0.31467
H      2.52500    -0.32519    -0.22527
N      0.02665     2.91462     0.27671
H     -0.52384     2.50096    -0.46755
H     -0.08151     2.29728     1.07095
H     -0.40875     3.79269     0.51924
N      3.27761     2.04584     0.01113
H      3.56018     1.98951    -0.95961
H      2.38115     2.52505     0.02192
H      3.95048     2.63320     0.48398
N      0.83132    -0.13183    -3.39102
H      1.29234     0.07654    -4.26362
H      1.51187    -0.55753    -2.77243
H      0.57763     0.74907    -2.96227
