 36
-509.4283540272003
N      0.89818    -1.17456    -2.98576
H      1.48923    -0.36977    -2.83015
H      0.71829    -1.22981    -3.97799
H      0.01896    -0.96364    -2.52008
N      2.29404    -0.22528     3.04844
H      2.23779     0.18942     2.12368
H      2.39063     0.52456     3.72111
H      3.14562    -0.77113     3.07374
N      0.74041     2.36946    -2.49966
H      0.06631     1.63585    -2.67510
H      0.42132     2.82016    -1.65111
H      0.64960     3.04127    -3.24858
N      1.66199     0.39702    -0.00092
H      0.66167     0.55111    -0.05177
H      2.08549     1.02744    -0.66800
H      1.80805    -0.54960    -0.32849
N     -0.79698     2.61849     0.66013
H     -0.90005     3.55641     1.02554
H     -1.53984     2.05642     1.07245
H      0.07144     2.25681     1.03799
N      0.16504    -3.22769    -0.80436
H      0.57480    -2.76395    -1.61133
H      0.89385    -3.78727    -0.37837
H     -0.53325    -3.87437    -1.15041
N     -0.61055    -1.41912     1.55882
H     -0.39218    -1.94915     0.71456
H      0.27775    -1.12860     1.96182
H     -1.00762    -2.07814     2.22011
N     -2.57418     0.68386     2.34015
H     -3.45138     0.21194     2.52302
H     -1.88539    -0.01730     2.04781
H     -2.25161     1.04679     3.23081
N     -1.75894     0.15327    -1.43016
H     -2.65911     0.12431    -1.88650
H     -1.84404    -0.38205    -0.57487
H     -1.60606     1.11358    -1.14007
