 24
-339.60766298489375
N     -0.09526    -0.49409     0.91253
H      0.39056    -1.05048     0.21801
H      0.03746     0.47353     0.64068
H      0.40635    -0.62537     1.78142
N     -0.26877     1.86249    -1.67403
H     -1.16823     1.66630    -1.22786
H     -0.07592     2.84729    -1.52664
H     -0.41402     1.75343    -2.67369
N      1.89791    -0.55158    -1.86574
H      2.74992    -0.08087    -2.14590
H      1.58321    -1.09095    -2.66299
H      1.20338     0.17618    -1.70576
N     -3.03855     1.64026    -0.47078
H     -3.23608     2.37919     0.19598
H     -3.67384     1.78059    -1.24924
H     -3.29599     0.75976    -0.02759
N     -3.12967    -1.10933     0.93042
H     -3.34116    -1.38187     1.88363
H     -3.23204    -1.93555     0.35119
H     -2.14195    -0.85015     0.90075
N      4.40124    -1.47529     2.33870
H      4.89272    -0.59408     2.42342
H      5.09596    -2.20622     2.24822
H      3.88606    -1.44478     1.46744
