 36
-509.423664779771
N      1.64757     2.31594     2.56646
H      1.50363     2.95999     3.33223
H      0.78339     2.30356     2.03412
H      1.72010     1.39318     2.97728
N     -1.28338     0.84210    -5.03366
H     -1.09045     0.02652    -5.60040
H     -2.27695     1.02424    -5.09232
H     -0.80832     1.62554    -5.46278
N     -1.50637     0.36998     1.52554
H     -1.36872     1.22999     1.00488
H     -1.64839    -0.37577     0.85064
H     -2.37616     0.47198     2.02918
N      1.84081    -0.65714     0.86309
H      1.13760     0.02943     0.61268
H      1.59025    -0.98568     1.79296
H      2.70462    -0.13785     0.95354
N     -0.28241     3.04454    -0.09996
H     -0.26330     2.21761    -0.70122
H     -0.66488     3.81430    -0.63223
H      0.67725     3.28368     0.11216
N     -1.62622    -2.19090    -0.81322
H     -0.64143    -2.43884    -0.90876
H     -2.11423    -3.01250    -0.48034
H     -1.96705    -2.00943    -1.75021
N     -0.26389     0.47951    -1.59095
H     -0.98235    -0.14320    -1.23389
H      0.60621    -0.03674    -1.53705
H     -0.45446     0.63848    -2.57215
N      0.17274    -1.10773     3.50219
H     -0.12010    -0.80223     4.42327
H     -0.34950    -0.55724     2.81206
H     -0.15230    -2.06418     3.40562
N      1.35259    -3.01554    -0.90565
H      1.60828    -2.25701    -0.26499
H      1.43993    -3.88121    -0.38525
H      2.04993    -3.04937    -1.63990
