 24
-339.6125972031569
N     -0.90492     1.52041     1.59260
H     -0.97940     0.67044     2.13655
H      0.08577     1.71910     1.52635
H     -1.33062     2.26075     2.13147
N      1.71375     1.12730    -0.31011
H      2.49818     1.74516    -0.45901
H      1.75260     0.39787    -1.01651
H      0.87643     1.66584    -0.48759
N      1.43725    -1.31664    -2.26748
H      0.67126    -1.30305    -1.59194
H      1.04003    -1.45789    -3.18841
H      1.99930    -2.13355    -2.05914
N     -3.01256     0.58290    -1.15908
H     -2.16748     0.21445    -1.57318
H     -3.43718     1.20652    -1.83125
H     -2.70974     1.14285    -0.37197
N     -0.73813    -1.22237    -0.09849
H     -0.41652    -1.83237     0.64449
H     -0.71389    -0.27636     0.27824
H     -1.71113    -1.44319    -0.27588
N      1.34517    -0.79000     2.51014
H      1.93973    -1.60681     2.56258
H      1.57852    -0.31508     1.64212
H      1.63490    -0.17962     3.26441
