 24
-339.61265828049346
N      2.87942    -0.96304    -0.66765
H      3.69261    -1.31126    -0.17233
H      2.18259    -1.70967    -0.68272
H      3.16925    -0.80059    -1.62556
N     -0.94722    -0.81604     0.96589
H     -1.83861    -0.43622     0.66121
H     -1.10413    -1.17627     1.90028
H     -0.31528    -0.02689     1.05681
N      0.62331    -2.93988    -0.52451
H      0.08798    -2.19072    -0.07970
H      0.06788    -3.30952    -1.28723
H      0.72614    -3.68111     0.15911
N     -0.89023     1.78334    -1.08955
H     -0.76563     2.39858    -1.88426
H     -0.03117     1.80244    -0.53974
H     -0.94145     0.83998    -1.46132
N     -3.60037     1.35809     0.69639
H     -2.73398     1.64852     0.24745
H     -4.33317     1.46408     0.00582
H     -3.78809     2.02590     1.43415
N      1.77143     1.55792     0.47715
H      2.13451     0.67529     0.09566
H      2.33869     2.30687     0.09204
H      1.94449     1.55521     1.47672
