 40
-566.0395570180323
N     -0.65118    -3.17866     0.00918
H      0.33385    -2.95839    -0.09484
H     -0.92167    -2.83578     0.92109
H     -0.74156    -4.18443     0.01370
N     -2.92878    -1.01967     1.38819
H     -3.75385    -1.47917     1.74763
H     -3.21414    -0.09587     1.07602
H     -2.63560    -1.52624     0.56211
N      1.99650    -0.02321    -2.81033
H      1.03764    -0.35103    -2.77936
H      1.99705     0.88645    -2.36840
H      2.24002     0.10679    -3.78039
N     -3.67286     2.10407    -0.00958
H     -4.25675     2.10346    -0.83422
H     -4.01109     2.84592     0.58728
H     -2.73960     2.36270    -0.30834
N      2.11135    -0.18450     2.57995
H      2.29369    -0.10429     3.57212
H      1.22975     0.29677     2.38383
H      1.95049    -1.16675     2.39664
N     -0.49264     1.12372     2.19089
H     -1.08605     0.30488     2.28291
H     -0.74437     1.75548     2.93959
H     -0.75946     1.56316     1.31522
N      2.61486    -2.16876    -0.16946
H      3.49838    -2.65781    -0.15524
H      2.52082    -1.74991    -1.08957
H      2.68736    -1.39245     0.47684
N     -1.37621    -0.64911    -2.21794
H     -2.16938    -0.84813    -2.80879
H     -1.16166    -1.49878    -1.70587
H     -1.67164     0.02434    -1.52189
N      2.92129     1.66508    -0.03254
H      2.81768     1.25134     0.89005
H      3.20937     0.91443    -0.64902
H      3.68683     2.32245     0.01473
N     -0.34503     2.38642    -0.96125
H     -0.36261     1.69317    -1.69755
H      0.44793     2.14512    -0.37418
H     -0.11703     3.27221    -1.38935
