 32
-452.8250701797746
N      0.46881     1.13279     1.75322
H      1.32430     1.44162     1.30495
H     -0.26815     1.19914     1.06251
H      0.24785     1.79285     2.48573
N     -2.32901     1.85373    -0.81641
H     -2.67263     1.89513    -1.76944
H     -2.87197     1.13013    -0.35470
H     -2.57040     2.73888    -0.38845
N      0.26163    -1.98111    -1.79688
H     -0.69939    -2.04636    -1.48386
H      0.44103    -0.98131    -1.92334
H      0.29998    -2.42440    -2.70693
N      0.67562     0.96915    -2.05145
H     -0.19375     1.32683    -1.66393
H      1.41964     1.30733    -1.45237
H      0.79762     1.39917    -2.96006
N      2.57531    -1.34751     0.51828
H      3.15675    -2.09602     0.87103
H      1.89656    -1.13255     1.23859
H      2.05746    -1.71211    -0.27864
N     -1.08590    -1.51620     1.29960
H     -0.60047    -0.71976     1.70798
H     -1.24202    -2.18968     2.03885
H     -0.44047    -1.94142     0.64307
N     -3.84987    -0.54232     0.53680
H     -4.38310    -1.30055     0.12876
H     -2.89875    -0.87570     0.69958
H     -4.25239    -0.34696     1.44611
N      3.58773     1.43026     0.30294
H      4.26714     1.55621    -0.43992
H      3.31070     0.44320     0.30505
H      4.08755     1.59608     1.17139
