 24
-339.612225189993
N      1.85706    -1.55532    -0.90180
H      2.69639    -2.09711    -0.73332
H      1.16292    -1.88747    -0.23832
H      1.52159    -1.81143    -1.82240
N     -0.37921     0.21754     2.07600
H      0.28977     0.68347     1.47613
H     -1.29289     0.50117     1.74049
H     -0.26063     0.61535     2.99689
N     -0.14753    -3.09633     1.48660
H     -1.05128    -3.53109     1.35044
H      0.30447    -3.59330     2.24382
H     -0.32511    -2.15030     1.81651
N     -0.94026     2.61517    -1.83483
H     -0.76289     2.65800    -2.82927
H     -1.05842     3.56234    -1.50086
H     -0.10553     2.24804    -1.38956
N     -2.68696     0.14742    -0.21524
H     -1.93499    -0.50068    -0.01477
H     -3.34689    -0.33183    -0.81450
H     -2.26924     0.89653    -0.76142
N      2.05195     1.72128    -0.49023
H      2.07480     0.70523    -0.53870
H      2.36208     2.06200    -1.39283
H      2.74301     2.01894     0.18617
