 36
-509.4269408328688
N      3.67060    -1.18561    -1.78056
H      4.24742    -1.85361    -2.27669
H      3.33131    -0.51479    -2.46374
H      4.28502    -0.68693    -1.14866
N     -2.94537     2.08680    -0.52293
H     -2.05463     1.85786    -0.07480
H     -3.18920     1.30482    -1.12067
H     -2.79011     2.88508    -1.12618
N      2.13472     0.71521    -3.74550
H      1.40220     0.29606    -3.17196
H      2.05143     1.71974    -3.64656
H      1.92614     0.48401    -4.70886
N     -1.20778    -0.10595     3.35661
H     -1.37670    -0.13735     4.35627
H     -1.95359     0.46293     2.94552
H     -1.30955    -1.05522     3.01457
N     -3.49183     1.58146     2.51852
H     -3.47114     2.46476     3.01575
H     -3.57316     1.79980     1.52736
H     -4.34647     1.11233     2.79711
N      0.82825    -2.58267    -0.48774
H      0.61624    -3.49136    -0.87453
H      1.68555    -2.25950    -0.93145
H      0.99563    -2.70419     0.50411
N     -0.17877     1.32749     0.51667
H      0.40713     2.13017     0.71022
H     -0.26493     0.81400     1.38881
H      0.32928     0.74786    -0.14220
N      1.44252    -1.39867     2.48003
H      0.76307    -0.78283     2.91641
H      1.57832    -1.04172     1.54293
H      2.32817    -1.28053     2.95638
N     -0.32179    -0.48403    -2.17972
H     -0.90122    -0.92115    -2.88945
H     -0.03957    -1.21916    -1.51992
H     -0.93069     0.15376    -1.68049
