 24
-339.6084143610816
N      1.01674    -0.70988     0.79032
H      0.32087    -0.51946     1.50447
H      0.81882    -1.61439     0.38772
H      1.89945    -0.79503     1.27637
N     -1.45327     0.35920     3.05841
H     -1.39935     1.32128     3.36652
H     -2.00109     0.35916     2.20192
H     -1.97968    -0.15640     3.75126
N      0.53854    -3.31288    -1.82589
H      0.68425    -4.25568    -1.49080
H     -0.23781    -3.33813    -2.47405
H      1.35997    -3.05315    -2.35574
N     -0.35896     1.54765    -1.64587
H      0.31131     2.28136    -1.45706
H     -0.18440     0.82866    -0.95406
H     -0.09747     1.14400    -2.53557
N     -2.77724     0.03499    -0.04672
H     -3.71080    -0.14728    -0.38591
H     -2.39115     0.79597    -0.59544
H     -2.21493    -0.77685    -0.27288
N      2.83209     2.10604    -0.21220
H      2.25230     1.29736    -0.01668
H      3.74893     1.75858    -0.45923
H      2.92096     2.61423     0.65785
