 24
-339.6149084768818
N      0.05426    -2.16478     0.85870
H      0.79740    -1.61583     1.27134
H      0.20894    -3.12516     1.12907
H      0.19441    -2.10512    -0.14370
N      0.05795     1.92385     1.09736
H     -0.14597     2.07766     0.11615
H     -0.66149     1.29573     1.43110
H     -0.07843     2.80459     1.57071
N      1.20629    -0.69237    -1.89477
H      0.78789     0.21874    -1.73607
H      1.82329    -0.85405    -1.10754
H      1.79079    -0.61781    -2.71621
N     -1.48077     1.28529    -1.84136
H     -1.25636     0.40502    -2.28725
H     -1.88419     1.04607    -0.94172
H     -2.20052     1.73250    -2.39142
N     -2.75698    -0.37154     0.80391
H     -3.27058    -0.74370     0.01408
H     -1.96124    -0.98903     0.94251
H     -3.35637    -0.44688     1.61459
N      2.91305     0.11246     1.01962
H      3.42055     0.09710     1.89430
H      3.51162     0.55603     0.33313
H      2.11123     0.72741     1.13971
