 40
-566.0362506100126
N      1.41893    -1.77928     1.07813
H      0.71014    -1.36781     0.48313
H      2.31164    -1.48601     0.70907
H      1.32957    -2.77479     0.93656
N     -0.65817     0.33487     2.30477
H     -0.60396     0.71719     3.23895
H     -0.00825    -0.44548     2.26237
H     -0.30262     1.04020     1.66895
N      3.11148     1.01754     1.28676
H      3.93361     1.19907     1.84521
H      2.65978     1.91257     1.11920
H      2.47648     0.46444     1.84760
N     -1.27697     2.42961    -0.33136
H     -1.70346     2.24798     0.57196
H     -1.90840     3.06094    -0.81559
H     -1.33780     1.52141    -0.80677
N     -1.97008    -0.22997    -1.35581
H     -1.31003    -0.83153    -1.84214
H     -2.36322    -0.76107    -0.58369
H     -2.73450    -0.06829    -2.00022
N     -3.06881    -1.43785     1.70439
H     -2.87318    -2.24147     2.28981
H     -2.33025    -0.76468     1.89492
H     -3.93711    -1.03835     2.03828
N      1.64701     0.95659    -1.74589
H      1.06190     1.71735    -1.42096
H      2.22060     0.68378    -0.95231
H      2.28349     1.34884    -2.43072
N     -0.86624    -3.45869    -0.60919
H     -0.49239    -2.85899    -1.33539
H     -1.40668    -4.17719    -1.06797
H     -1.51952    -2.88943    -0.08750
N      0.39701    -1.33621    -3.09763
H      0.06897    -1.04731    -4.01179
H      0.72101    -0.49526    -2.60882
H      1.21464    -1.91398    -3.25862
N      1.35188     3.97549     0.79069
H      0.50420     3.58644     0.38463
H      1.67191     4.71468     0.17816
H      1.08808     4.41427     1.66387
