 36
-509.42969883108447
N     -0.10005     2.50603    -2.64973
H      0.36973     1.67214    -2.98699
H     -0.17130     3.15450    -3.42016
H      0.50855     2.91357    -1.95345
N      0.61764    -1.15808     2.81658
H      0.84081    -1.34211     3.78420
H      1.44998    -0.77005     2.39186
H     -0.06171    -0.40755     2.80474
N      1.44785    -1.84632    -0.45768
H      2.09868    -1.14020    -0.13015
H      0.75501    -1.90774     0.27972
H      1.93653    -2.73192    -0.45956
N      2.71205     1.06372     0.91685
H      3.26808     1.60573     1.56773
H      3.06967     1.26566    -0.00989
H      1.76539     1.44382     0.92814
N     -2.38233     0.57354     1.93651
H     -2.66470    -0.31430     2.33447
H     -3.11876     1.23928     2.13381
H     -2.36686     0.43507     0.92937
N     -2.10826    -2.74989     1.52069
H     -2.16271    -3.73153     1.28826
H     -2.05792    -2.24047     0.64765
H     -1.22256    -2.59635     1.98845
N      1.59350    -0.38924    -3.57358
H      2.58101    -0.34139    -3.78454
H      1.50408    -0.84913    -2.67337
H      1.17307    -1.00204    -4.25883
N     -0.17710     2.26375     0.73733
H     -0.36121     3.21851     1.02204
H     -0.51217     2.17981    -0.21607
H     -0.79268     1.67579     1.29979
N     -1.71580    -0.14560    -1.23751
H     -2.24837    -0.69639    -1.89329
H     -1.61255     0.76846    -1.66468
H     -0.78271    -0.53868    -1.21618
