 24
-339.61197919017883
N      1.25985    -1.54662     3.64708
H      1.28146    -2.36338     4.24368
H      0.84500    -0.79204     4.17872
H      0.63063    -1.74990     2.88164
N     -1.86064     2.10650    -0.07720
H     -1.79095     1.09315    -0.10773
H     -2.73842     2.33632     0.36687
H     -1.91830     2.41108    -1.03897
N     -0.61195     0.81467    -3.18207
H      0.09269     1.11606    -2.52280
H     -0.82969     1.59449    -3.78472
H     -1.43546     0.60433    -2.63823
N      1.48122     1.57096    -0.21487
H      2.19618     2.24546    -0.44625
H      0.63197     2.07104     0.01933
H      1.77476     1.10589     0.63300
N     -1.45059    -1.27941    -0.68145
H     -2.19250    -1.96429    -0.62335
H     -1.09803    -1.31353    -1.62976
H     -0.68936    -1.60218    -0.09387
N      1.36206    -1.69631     0.41462
H      1.84626    -2.31956    -0.21794
H      1.24956    -0.80983    -0.06849
H      1.95510    -1.55815     1.22327
