 36
-509.4277800031343
N     -1.89536     1.99079    -0.01121
H     -1.40802     1.60613     0.79481
H     -1.15894     2.30165    -0.63909
H     -2.36818     2.83163     0.29712
N      0.24684     0.97380     1.80855
H      0.63818     1.21510     0.90819
H      0.48318     1.71442     2.45343
H      0.67756     0.11330     2.11379
N      3.55855    -0.20451     1.71857
H      3.26641     0.64165     2.19273
H      2.83784    -0.90345     1.89545
H      4.41186    -0.52038     2.16049
N      1.97279    -0.31464    -0.96488
H      2.53531    -0.18170    -0.12505
H      1.26174    -1.00612    -0.75016
H      2.58266    -0.74650    -1.65018
N      1.05049     2.38139    -1.75791
H      0.93076     2.40798    -2.76367
H      1.76563     3.06636    -1.54051
H      1.42648     1.45773    -1.51643
N     -1.09411    -1.92054     0.67649
H     -1.39311    -0.98682     0.94241
H     -1.11323    -1.92198    -0.34549
H     -1.83219    -2.54396     0.98873
N     -3.99434     0.53829    -1.68085
H     -4.35492     1.26468    -2.28767
H     -4.75871     0.24037    -1.08658
H     -3.29865     0.98022    -1.07905
N     -1.16360    -1.19527    -2.16974
H     -2.08182    -0.77664    -2.03220
H     -1.16335    -1.60326    -3.09515
H     -0.50697    -0.42317    -2.18395
N      1.30880    -2.38326     2.26713
H      0.48840    -2.25253     1.65305
H      1.76179    -3.24571     1.97805
H      0.95465    -2.55674     3.20249
