 36
-509.4270594596092
N      3.25511     0.39741    -2.97082
H      4.24270     0.46699    -2.75767
H      2.93616    -0.49555    -2.59818
H      3.16896     0.34156    -3.97834
N     -1.07529     2.80761     0.69935
H     -2.08807     2.83483     0.73851
H     -0.76195     3.76229     0.56653
H     -0.83251     2.29344    -0.14375
N     -1.02090    -0.93386     1.63405
H     -1.73273    -1.46225     2.12414
H     -0.66045    -0.23325     2.27980
H     -1.47507    -0.44476     0.87171
N      2.26622    -2.57157    -1.88705
H      3.09083    -3.16233    -1.87806
H      1.91009    -2.54970    -0.92960
H      1.57644    -3.04544    -2.46121
N     -3.98543     1.22677     0.65171
H     -4.91099     0.82219     0.66898
H     -3.48057     0.83346    -0.13814
H     -3.49713     0.91198     1.47925
N      1.38832    -2.49829     0.99374
H      0.55558    -1.93967     1.22068
H      1.22693    -3.43424     1.35071
H      2.15448    -2.12151     1.54366
N      0.75024     0.59319    -0.81382
H      0.84437     1.03641     0.09112
H      0.85509    -0.40022    -0.65776
H      1.51298     0.89926    -1.40715
N      0.14906     1.63069     3.12276
H     -0.26056     2.06377     3.94243
H      1.12224     1.91304     3.10689
H     -0.30965     2.04266     2.30172
N     -1.91688    -0.34057    -1.55923
H     -0.99194     0.09117    -1.53442
H     -1.79507    -1.24098    -1.11132
H     -2.15656    -0.52912    -2.52404
