 24
-339.6054525144988
N     -0.25767    -0.30321     0.42781
H     -0.32480     0.61688     0.00199
H     -1.15588    -0.50518     0.85329
H      0.41382    -0.21875     1.18278
N      0.97985     3.16361     1.06030
H      0.09678     2.99667     0.60163
H      1.64834     3.36998     0.33234
H      1.26538     2.29198     1.48131
N      0.99184    -1.87062    -2.36556
H      1.56407    -1.19487    -2.85432
H      0.24158    -2.12740    -2.99386
H      0.57626    -1.39596    -1.57266
N     -1.73997     2.04942    -1.31097
H     -1.94511     1.06881    -1.18499
H     -2.56877     2.55985    -1.04284
H     -1.58584     2.19616    -2.29852
N     -2.68451    -2.48375     0.79557
H     -1.72340    -2.52685     0.48304
H     -2.76198    -3.09412     1.59814
H     -3.24968    -2.87855     0.05602
N      2.85170    -0.12219     1.79112
H      2.51875    -0.63859     0.98737
H      3.71908     0.31553     1.51328
H      3.07068    -0.79759     2.51030
