 36
-509.4308560297922
N      0.30034     1.50421    -2.86599
H      1.11204     0.89641    -2.93717
H     -0.50235     0.90776    -3.02004
H      0.33328     2.16133    -3.63200
N     -1.64144    -0.13165    -0.54619
H     -1.53344     0.71031    -1.09873
H     -0.71762    -0.36000    -0.19801
H     -1.89810    -0.89160    -1.16062
N      2.56420    -0.59867    -2.40623
H      2.60244    -1.61043    -2.39113
H      3.50398    -0.27554    -2.60427
H      2.32743    -0.30295    -1.44941
N     -0.01733    -2.16999     1.60085
H     -0.07779    -1.26871     2.08951
H     -0.82114    -2.22293     0.98703
H     -0.12712    -2.90246     2.29070
N     -3.20787     1.26461     1.93081
H     -3.67886     2.06655     1.52983
H     -2.89173     0.68750     1.15666
H     -3.90933     0.72954     2.42780
N      2.09390     0.09990     0.43876
H      3.03600     0.23264     0.78151
H      1.56217     0.93646     0.67576
H      1.71608    -0.68302     0.96447
N      0.17616     2.51073     0.47828
H      0.09028     3.51563     0.47376
H      0.38304     2.22192    -0.47385
H     -0.72963     2.12613     0.71345
N     -0.13551     0.33550     3.11493
H      0.44811     1.09427     2.78708
H      0.11649     0.15348     4.07689
H     -1.09160     0.67609     3.10535
N     -0.02827    -2.69665    -1.63601
H      0.40025    -2.77259    -0.71916
H      0.21727    -3.51049    -2.17787
H      0.39342    -1.88857    -2.07801
