 24
-339.6064454070862
N      1.02167    -3.03441     2.09637
H      1.94375    -2.93558     1.69473
H      0.75550    -4.00766     2.04037
H      0.40125    -2.50102     1.50323
N      0.34153     1.75889     0.17204
H     -0.07190     2.27618     0.93983
H      0.73777     2.44779    -0.45843
H     -0.41762     1.29864    -0.32439
N      1.21359    -1.86569    -1.03249
H      1.71632    -1.77907    -1.90968
H      1.81037    -1.46902    -0.30174
H      1.13194    -2.85979    -0.84774
N     -3.75751     3.84497    -0.90658
H     -3.67589     3.10257    -0.22355
H     -4.68677     3.78243    -1.30468
H     -3.10251     3.61223    -1.64263
N     -1.47516    -0.28880    -1.35325
H     -0.58866    -0.74703    -1.13600
H     -2.21363    -0.83073    -0.92092
H     -1.60501    -0.35482    -2.35525
N      2.65338    -0.29050     1.12512
H      3.52677     0.21203     1.21502
H      1.95979     0.35279     0.74195
H      2.33877    -0.52511     2.05959
