 24
-339.6110520788384
N      2.26138    -0.76712    -0.64000
H      1.68129    -1.55554    -0.90508
H      1.88571     0.05399    -1.09682
H      3.18332    -0.92108    -1.02727
N     -1.12824    -1.37366     1.55189
H     -1.93214    -1.98636     1.59541
H     -0.71757    -1.36524     2.47643
H     -1.48602    -0.44130     1.37240
N      0.20247    -3.06963    -0.84302
H     -0.09703    -2.42662    -0.11236
H     -0.61384    -3.30686    -1.39240
H      0.51643    -3.91513    -0.38191
N     -0.48383     1.64731    -2.05588
H      0.01165     1.86776    -1.19706
H     -0.45960     0.63857    -2.13166
H      0.05286     2.02327    -2.82512
N     -2.25305     1.84033     0.86609
H     -1.45753     2.46451     0.88817
H     -2.44009     1.69547    -0.11803
H     -3.04107     2.33911     1.25427
N      1.11023     1.69857     0.98617
H      1.60842     0.83077     0.80896
H      1.73331     2.31205     1.49396
H      0.34934     1.46253     1.61113
