 24
-339.611735321824
N      2.67359    -1.72271    -0.76210
H      3.20946    -2.58078    -0.74225
H      3.31929    -0.94820    -0.85026
H      2.19766    -1.62966     0.13608
N     -0.82641     4.04038     0.33396
H     -0.22804     4.02335     1.15201
H     -1.61796     4.63519     0.54983
H     -1.18306     3.09899     0.20405
N     -0.05863    -1.46921    -1.75536
H     -0.13489    -0.93954    -2.61697
H      0.93828    -1.56529    -1.54044
H     -0.41472    -2.39649    -1.96607
N     -1.33583     1.37449    -1.23093
H     -2.04819     1.27844    -1.94225
H     -0.70181     2.10024    -1.53889
H     -0.82084     0.49956    -1.19166
N     -1.61350    -0.85739     1.28544
H     -2.49973    -1.32121     1.42328
H     -1.80204     0.10299     1.02908
H     -1.16391    -1.27626     0.47686
N      1.27309    -1.54136     2.02674
H      1.74447    -0.94445     2.69915
H      0.31287    -1.20900     1.94690
H      1.22625    -2.46679     2.44258
