 24
-339.6146878708339
N     -0.13961    -1.71134     1.64317
H     -0.04584    -2.21099     0.76818
H      0.46126    -0.90074     1.55446
H      0.26632    -2.30059     2.35674
N      0.06753     1.64648     1.92469
H      0.03746     2.35394     2.64439
H     -0.42181     2.01617     1.11481
H     -0.48095     0.86009     2.24767
N      1.10117    -1.78935    -1.72271
H      1.68208    -2.61401    -1.78594
H      1.11715    -1.34314    -2.63207
H      1.55916    -1.14755    -1.08108
N     -1.70483     2.26987    -0.97529
H     -1.19107     2.50812    -1.81352
H     -1.88332     1.27037    -1.01820
H     -2.60395     2.73080    -1.02643
N     -2.22551    -1.12036    -1.06060
H     -1.30534    -1.38149    -1.40050
H     -2.21498    -1.29176    -0.06294
H     -2.89820    -1.74861    -1.47517
N      2.82111     0.55731     0.20722
H      3.53431     0.34792     0.89288
H      3.20098     1.26168    -0.41134
H      2.05324     0.99717     0.70575
