 24
-339.6085747717761
N     -0.42071    -3.49718     1.94261
H      0.40123    -3.88937     2.38471
H     -1.10087    -4.23989     1.84246
H     -0.15028    -3.21163     1.01079
N      2.30612     1.47362    -3.02467
H      2.45892     1.53412    -4.02305
H      3.20362     1.29366    -2.59348
H      1.72309     0.65750    -2.85813
N      0.34332    -1.22997    -2.55789
H      0.77210    -2.13055    -2.73362
H      0.05871    -1.20123    -1.58305
H     -0.50324    -1.19005    -3.11277
N     -1.19145     2.68041     0.14749
H     -1.76317     3.43375    -0.20807
H     -0.62757     3.05162     0.90081
H     -0.54570     2.42739    -0.59127
N     -0.51256    -0.66944     0.40848
H      0.30138    -0.13257     0.68628
H     -1.23578     0.00815     0.19762
H     -0.81523    -1.21504     1.20471
N     -0.68477     1.53954     3.11425
H     -0.31670     0.59580     3.14668
H     -1.26334     1.57337     2.28205
H     -1.30378     1.63168     3.91063
