 24
-339.60798994341593
N      1.35900    -0.22894     2.51976
H      0.36860    -0.33875     2.72663
H      1.80339    -1.13631     2.60803
H      1.76158     0.37072     3.23118
N     -1.64341    -0.44283     3.20606
H     -1.87511    -1.25759     3.76286
H     -1.87724     0.37398     3.75898
H     -2.26702    -0.44400     2.40235
N      1.14967    -1.46930    -2.48707
H      0.89704    -1.09427    -1.58180
H      0.68853    -0.87752    -3.16610
H      0.74373    -2.39202    -2.55936
N     -0.03047     1.83119    -2.97290
H     -0.57317     2.65240    -2.73791
H      0.52889     1.60291    -2.15384
H      0.61808     2.10855    -3.69953
N     -2.89327    -0.51073     0.13009
H     -3.24106     0.24050    -0.45007
H     -1.89046    -0.38606     0.17370
H     -3.06243    -1.38140    -0.35484
N      1.88132     0.94102    -0.26023
H      2.50526     1.72089    -0.08636
H      1.60989     0.56834     0.64690
H      2.42521     0.23360    -0.74198
