 36
-509.4250146183093
N      1.69669    -0.00599    -1.29522
H      2.53751    -0.25109    -1.79742
H      1.73217     0.99100    -1.10027
H      1.73492    -0.47415    -0.39940
N      2.00296     1.25405     1.96126
H      2.65248     1.44023     1.21081
H      2.00040     0.25378     2.11322
H      1.09057     1.50397     1.60539
N      1.37194    -2.19622     1.85375
H      1.15908    -2.46013     2.80817
H      0.59744    -2.52267     1.28202
H      2.17865    -2.74270     1.58104
N      1.81992     3.38608    -0.53839
H      2.34280     3.50035     0.32027
H      2.01083     4.18403    -1.12622
H      0.84392     3.43773    -0.26218
N     -1.13691     0.13941     0.82827
H     -2.03862    -0.29152     0.98108
H     -0.79329    -0.24532    -0.04079
H     -0.51469    -0.19683     1.55263
N     -0.76878    -3.74841    -0.08973
H     -0.22698    -3.84407    -0.93966
H     -1.17543    -4.65226     0.10942
H     -1.52480    -3.10010    -0.29748
N     -1.01493     0.05292    -2.46593
H     -1.10557     0.14449    -3.47073
H     -1.26238     0.95488    -2.06976
H     -0.02452    -0.06627    -2.23706
N     -1.12480     3.14010     1.12046
H     -1.25585     2.14131     0.96515
H     -0.84429     3.24724     2.08883
H     -2.02474     3.59334     1.02462
N     -2.96349    -1.82577    -1.26261
H     -3.87423    -1.38207    -1.32133
H     -2.28122    -1.18527    -1.68671
H     -3.01294    -2.64049    -1.86475
