 36
-509.4285351277507
N     -2.34330     1.54967    -2.95913
H     -2.16112     1.26709    -3.91323
H     -2.72552     0.73809    -2.48049
H     -3.07859     2.24415    -2.98513
N      1.79794    -0.07711     2.08603
H      2.12433     0.38783     1.24869
H      2.52030     0.03547     2.78529
H      1.74741    -1.06909     1.87176
N      3.00810    -1.14155    -1.14094
H      3.15635    -0.13413    -1.11165
H      3.90018    -1.59098    -0.97124
H      2.75191    -1.36922    -2.09551
N      2.85614     1.94923    -1.07770
H      3.16901     2.74307    -0.52987
H      2.92063     2.24337    -2.04727
H      1.85723     1.80920    -0.87841
N      0.90838    -2.65604     0.31616
H      0.01035    -2.50700    -0.12636
H      1.57631    -2.02575    -0.14113
H      1.18773    -3.60270     0.09105
N     -3.64295    -1.12326    -1.17735
H     -4.47532    -0.75800    -0.73117
H     -3.85398    -2.06846    -1.47255
H     -2.93521    -1.17829    -0.44900
N      0.03611     1.44161    -0.41078
H     -0.52064     1.72302    -1.21061
H     -0.15695     0.45896    -0.25897
H     -0.31023     1.93371     0.40120
N     -0.64543     1.21941     3.04144
H      0.18817     0.73972     2.67084
H     -0.32991     1.98059     3.63269
H     -1.10632     0.55758     3.65681
N     -1.80820    -1.07106     1.29241
H     -1.71314    -0.10050     1.58011
H     -2.49831    -1.49383     1.90088
H     -0.92111    -1.52008     1.49264
