 36
-509.4295213687148
N      0.52318    -2.07953    -0.82443
H     -0.23237    -1.65054    -0.30391
H      0.57335    -3.04611    -0.52549
H      1.37719    -1.64499    -0.49811
N      1.09166     2.74158     3.27130
H      1.68769     3.50172     2.96497
H      0.40227     2.60422     2.53356
H      0.60324     3.06790     4.09633
N      1.69579     1.13746    -1.02847
H      2.56969     1.56380    -1.30759
H      1.83260     0.70384    -0.10778
H      1.50143     0.39340    -1.68774
N      2.17173    -0.04487     1.62610
H      2.01219     0.76818     2.21776
H      1.44102    -0.72039     1.84095
H      3.05021    -0.45296     1.91679
N     -0.81869    -1.17003     2.52631
H     -0.52806    -0.23281     2.77011
H     -1.54069    -1.07652     1.81881
H     -1.22522    -1.58942     3.34884
N     -0.71731     2.27734     0.83000
H     -1.21614     3.12548     0.59319
H      0.06753     2.19809     0.18785
H     -1.33668     1.50572     0.61813
N      0.04614    -2.33091    -3.74787
H      0.20790    -2.23760    -2.74272
H     -0.54023    -3.14369    -3.88856
H      0.93680    -2.53084    -4.18493
N     -2.74488    -0.89282    -0.18007
H     -2.85993    -1.87859    -0.39601
H     -3.67854    -0.49869    -0.18967
H     -2.23419    -0.48915    -0.97448
N     -1.29957     0.36851    -2.39805
H     -0.55342     0.91071    -1.97032
H     -0.87696    -0.33118    -3.00585
H     -1.81557     1.00471    -2.99202
