 36
-509.42724912274645
N     -1.84582    -0.19327    -1.13286
H     -2.82019    -0.09370    -0.86687
H     -1.80701     0.00355    -2.12901
H     -1.33330     0.53998    -0.63891
N     -0.25409     1.93875     0.30100
H      0.63791     1.63853     0.67710
H     -0.06108     2.64327    -0.40053
H     -0.75238     2.41317     1.04754
N     -1.05597    -2.78227     0.15211
H     -1.83881    -3.11689     0.70221
H     -0.36255    -2.44924     0.81396
H     -1.36114    -1.94054    -0.35288
N      1.45780    -0.28390     2.25105
H      1.55130    -1.10255     2.83881
H      0.48852     0.00778     2.31572
H      1.59812    -0.55337     1.27503
N     -0.71386     3.90726     3.03999
H      0.26291     3.62886     3.05187
H     -1.10489     3.62428     3.92904
H     -0.73106     4.91823     3.01533
N     -0.52294    -3.74875    -2.84952
H     -0.68988    -3.59035    -1.85804
H      0.41294    -4.12419    -2.93629
H     -1.15213    -4.48783    -3.14016
N      1.52441    -0.90512    -0.61729
H      0.84942    -0.28114    -1.04198
H      2.37272    -0.83406    -1.16389
H      1.14509    -1.83120    -0.78038
N      2.57387     2.73585     3.12957
H      2.39186     1.77865     2.83879
H      3.26589     3.10976     2.49349
H      3.00804     2.68807     4.04236
N     -1.33336    -0.76102    -4.42019
H     -1.17357    -1.57437    -3.83409
H     -1.96957    -1.04497    -5.15323
H     -0.44672    -0.54836    -4.85758
