 36
-509.42810538143647
N     -0.94581     0.52845    -0.48257
H     -1.01609    -0.19480     0.22429
H     -1.88582     0.82514    -0.72274
H     -0.51175     1.32419    -0.03000
N      1.36440     1.41225     1.54685
H      2.26151     1.39847     2.02213
H      0.77164     0.70204     1.99334
H      1.53939     1.06760     0.60828
N     -0.07515    -2.62536    -0.67949
H      0.72065    -2.93998    -1.22737
H     -0.85459    -3.21068    -0.95619
H     -0.28327    -1.68581    -1.00069
N     -0.63666     3.84785     1.75489
H     -1.12538     3.64769     2.61913
H      0.11593     3.16466     1.70042
H     -0.21137     4.76010     1.85849
N     -2.85709     3.08267    -0.74867
H     -2.17577     3.28579    -0.02174
H     -2.62087     3.67274    -1.53680
H     -3.75716     3.38838    -0.40338
N     -0.24324    -0.64461     3.00816
H     -0.05829    -0.42455     3.97993
H      0.16508    -1.56033     2.81932
H     -1.24995    -0.73983     2.92805
N      0.33294     0.30637    -3.20833
H      0.80778     1.17218    -3.43675
H     -0.45651     0.24374    -3.84180
H     -0.05750     0.42398    -2.27335
N      0.86566    -3.31499     2.07849
H      0.54139    -4.26201     2.23387
H      0.54508    -3.02719     1.15029
H      1.87950    -3.34685     2.04917
N      2.16055    -2.55786    -3.23769
H      3.11740    -2.24575    -3.12969
H      2.07338    -2.94104    -4.17068
H      1.57823    -1.72344    -3.20510
