 24
-339.61349745075904
N     -0.66009    -2.12949     0.79977
H     -0.69253    -2.97295     1.35472
H     -0.07720    -1.46312     1.29195
H     -1.59383    -1.73181     0.81291
N      0.22244     1.52067     1.59891
H      0.97834     0.86650     1.43700
H      0.15968     2.07344     0.75067
H      0.51548     2.13997     2.33982
N      1.18152     2.15539    -1.52841
H      1.86144     1.77406    -0.88265
H      0.71722     1.35839    -1.95150
H      1.69397     2.63640    -2.25394
N     -0.16455    -0.92243    -2.39920
H     -1.07278    -0.55823    -2.66198
H      0.04789    -1.67801    -3.03669
H     -0.29566    -1.33430    -1.48107
N     -2.97038     0.35579     1.26333
H     -3.45973     0.96719     0.62158
H     -3.38740     0.48430     2.17693
H     -2.01662     0.70518     1.32785
N      2.33449    -0.81902     0.03740
H      2.11643    -0.57230    -0.91939
H      3.32500    -1.00808     0.07713
H      1.85189    -1.69345     0.19641
