 24
-339.59968019169986
N      1.93582    -2.07029    -1.41322
H      2.20655    -1.31365    -2.03141
H      2.21621    -1.80408    -0.47283
H      2.47206    -2.88544    -1.68119
N     -2.66517     2.88833     3.49664
H     -2.20557     2.06848     3.86539
H     -2.86159     2.73283     2.51852
H     -2.03397     3.67202     3.57625
N     -1.22968    -1.61005    -1.24452
H     -1.77164    -2.46224    -1.16715
H     -0.24672    -1.87071    -1.28509
H     -1.34616    -1.10788    -0.37233
N     -1.74140     0.41189    -3.89271
H     -1.22722     0.08248    -4.70060
H     -1.54985    -0.23348    -3.12972
H     -2.72580     0.32636    -4.11437
N      1.00567     1.71252     1.59408
H      0.70782     0.97057     0.97530
H      0.17179     2.11905     1.99909
H      1.45170     2.41362     1.01876
N      2.56557    -1.25151     1.79467
H      2.24362    -0.32225     2.04065
H      2.12802    -1.90177     2.43476
H      3.56070    -1.27786     1.97635
