 28
-396.2180029551646
N      3.36025    -2.00171    -0.75737
H      3.07206    -2.94147    -1.00288
H      2.59232    -1.38004    -1.00771
H      4.13893    -1.76201    -1.35919
N      1.15596     0.10528    -1.35943
H      1.60230     0.87999    -1.84150
H      0.28991    -0.11779    -1.86122
H      0.85980     0.48028    -0.46400
N     -1.98363     1.77650     1.98287
H     -1.25754     2.32104     2.43620
H     -2.66295     1.53695     2.69556
H     -1.55888     0.90118     1.66264
N     -0.81834    -0.86657     1.20402
H      0.08689    -0.89264     1.66842
H     -1.34716    -1.65362     1.56120
H     -0.63336    -1.04946     0.22392
N     -1.58241    -0.32751    -2.34639
H     -1.86784     0.54840    -1.89018
H     -1.84097    -0.27050    -3.32500
H     -2.14259    -1.06656    -1.93643
N     -2.51651     2.16269    -1.03875
H     -2.39858     2.13050    -0.02740
H     -2.10198     3.02802    -1.36521
H     -3.51044     2.22964    -1.22427
N      2.42544    -0.86206     2.32266
H      2.73911    -1.49287     3.04897
H      2.80591    -1.21751     1.44761
H      2.87963     0.02647     2.49108
