 24
-339.6157461036767
N     -0.03175    -1.79908     1.59462
H      0.16841    -2.51552     2.27804
H      0.19006    -2.18716     0.68446
H      0.63594    -1.05255     1.74393
N     -0.04829     1.50586     1.73296
H     -0.21074     2.08187     2.54629
H     -0.44959     1.99253     0.93762
H     -0.58953     0.65730     1.85176
N      1.11123    -1.71386    -1.58165
H      1.80215    -1.23074    -1.01243
H      1.56326    -1.97083    -2.44932
H      0.41162    -1.01308    -1.79683
N     -1.66520     2.28194    -1.19668
H     -1.22394     2.50930    -2.07775
H     -1.77516     1.27245    -1.16438
H     -2.59492     2.68083    -1.20787
N     -2.15909    -1.08731    -0.81821
H     -1.64826    -1.76877    -1.36363
H     -1.77510    -1.14583     0.12082
H     -3.11759    -1.40475    -0.76934
N      2.89057     0.51173     0.32953
H      3.54221     0.34879     1.08571
H      3.30219     1.21292    -0.27276
H      2.05821     0.93026     0.73604
