 24
-339.6092759851694
N      1.31637     1.49272     0.20507
H      2.12898     0.93286     0.42631
H      1.65159     2.42269     0.00369
H      0.74913     1.55112     1.04395
N     -1.47784     1.26707     2.24872
H     -1.93932     1.02069     1.37844
H     -1.44628     0.42507     2.81113
H     -2.07757     1.92479     2.73162
N     -2.69165    -2.44603    -0.74657
H     -3.01528    -1.59803    -0.30117
H     -1.75493    -2.25863    -1.08874
H     -3.28469    -2.61731    -1.54660
N     -2.13837     1.06651    -0.82021
H     -1.85495     0.28386    -1.39502
H     -2.61950     1.71582    -1.42619
H     -1.28115     1.51482    -0.52305
N      0.39110    -1.17423    -1.72403
H      0.75116    -0.94458    -2.64137
H      0.55271    -0.36345    -1.13296
H      0.98076    -1.90970    -1.35095
N      4.53415    -0.31043     0.72408
H      5.17027     0.32592     1.18536
H      4.42778    -1.11630     1.32525
H      4.98364    -0.62192    -0.12640
