 36
-509.4287636348981
N     -0.05464     0.79416     0.28220
H     -0.38821     0.75275     1.23597
H     -0.82203     0.51273    -0.31734
H      0.66006     0.07677     0.21138
N      1.49640     3.04981    -1.11152
H      1.73362     3.94435    -0.70257
H      2.36467     2.57117    -1.31591
H      1.02424     2.49041    -0.40542
N      1.97338    -0.18418    -2.16015
H      1.50562     0.70893    -2.09352
H      1.35851    -0.87660    -1.75098
H      2.06829    -0.41022    -3.14055
N     -1.16506    -0.85892     3.39593
H     -1.39875    -1.22352     2.46706
H     -2.00320    -0.48052     3.81951
H     -0.89565    -1.65884     3.95643
N     -1.65796    -2.01321     0.71656
H     -0.75201    -2.15582     0.28206
H     -2.14198    -2.89981     0.66813
H     -2.16724    -1.35993     0.12480
N     -3.09291     0.65334    -0.79274
H     -4.07985     0.69872    -1.01679
H     -2.95763     1.21779     0.03896
H     -2.56671     1.10973    -1.53823
N     -1.20663     1.86327    -2.76025
H     -0.57554     2.43524    -2.20417
H     -0.64411     1.10369    -3.12293
H     -1.50074     2.41844    -3.55316
N      1.74669    -0.47778     2.48305
H      0.79466    -0.48075     2.84625
H      2.38192    -0.43969     3.26907
H      1.86027     0.39140     1.97714
N      1.88847    -2.57646    -0.12223
H      2.59090    -2.06771    -0.64389
H      1.89994    -2.19362     0.81915
H      2.18903    -3.53804    -0.06074
