 24
-339.6133228180854
N      2.05090     0.09828     2.54901
H      1.11252    -0.29360     2.54915
H      2.69399    -0.68017     2.61613
H      2.14184     0.63623     3.40101
N     -1.13731    -1.22099     2.67545
H     -1.11089    -2.19118     2.95901
H     -1.81850    -0.75435     3.25891
H     -1.49506    -1.20133     1.72583
N      0.75272    -1.82794    -1.82897
H      1.20121    -1.51794    -2.68087
H      0.75489    -1.02996    -1.20542
H      1.35548    -2.52321    -1.40965
N      0.21054     2.82149    -2.75903
H      0.25839     1.94643    -2.24859
H     -0.35573     2.66471    -3.58406
H      1.15021     3.03253    -3.07331
N     -2.33978    -0.85945    -0.49569
H     -1.95962     0.00494    -0.85777
H     -1.87122    -1.59825    -1.00381
H     -3.31929    -0.88869    -0.74115
N      0.22664     1.27474    -0.08242
H      0.07185     2.25845    -0.25817
H     -0.53884     0.93490     0.48669
H      1.06083     1.19450     0.48844
