 24
-339.6104661112499
N     -0.02998    -2.97874     1.26517
H     -0.10525    -3.09972     0.26416
H      0.64719    -2.23587     1.38812
H      0.37879    -3.82389     1.63841
N      0.75790     2.86236    -0.38971
H      1.00832     3.77615    -0.03445
H      0.95268     2.86941    -1.38309
H     -0.25172     2.77626    -0.29676
N      1.44278    -1.93426    -1.67437
H      1.81815    -1.53540    -2.52288
H      1.50869    -1.22003    -0.95950
H      2.06901    -2.67236    -1.38345
N     -2.56318     2.35390    -0.04515
H     -2.57125     1.39925    -0.39032
H     -2.92080     2.31910     0.90184
H     -3.23337     2.87969    -0.59238
N     -1.60581    -0.55612    -0.54878
H     -0.93711     0.07697    -0.12892
H     -1.81911    -1.25841     0.14517
H     -1.13583    -1.02311    -1.31039
N      1.81570     0.13102     1.36361
H      1.54436     0.98632     0.88879
H      1.36904     0.15659     2.27254
H      2.81247     0.17358     1.52391
