 24
-339.61295054767635
N      0.14105    -1.17487     1.31347
H     -0.13377    -1.78505     2.07358
H      1.13546    -1.31262     1.17425
H      0.05571    -0.22406     1.65508
N      0.46884     2.21461     1.01610
H     -0.13779     1.85975     0.26689
H     -0.11817     2.70206     1.68453
H      1.05739     2.92761     0.59427
N      0.10040    -1.28121    -2.44160
H     -0.85586    -1.56418    -2.27121
H      0.56652    -2.04339    -2.91435
H      0.52081    -1.19119    -1.52574
N     -1.27277     1.43974    -1.23118
H     -1.82081     2.24196    -1.51545
H     -0.68387     1.18346    -2.01609
H     -1.90975     0.66032    -1.09632
N     -2.47355    -1.54651    -0.15846
H     -2.64801    -2.54565    -0.13911
H     -1.53640    -1.39258     0.22574
H     -3.12915    -1.13228     0.49683
N      3.05695     0.28659     1.33798
H      3.51873     0.64178     2.16649
H      3.67074     0.47340     0.55414
H      2.22205     0.85333     1.20453
