 24
-339.6055017585608
N      0.04706    -0.87688     1.64271
H     -0.20452     0.07487     1.88920
H     -0.36076    -1.48421     2.33917
H      1.05213    -0.95609     1.73704
N      0.41294     2.36555     2.28079
H      1.22263     1.81107     2.03665
H      0.32499     3.08892     1.58007
H      0.61056     2.81175     3.16525
N     -0.12494     1.27816    -2.46961
H      0.24924     0.34414    -2.56810
H      0.32279     1.65977    -1.64904
H     -1.09723     1.15841    -2.21693
N     -0.54096    -2.13736    -1.75240
H     -1.35902    -1.56383    -1.91102
H     -0.79697    -3.08696    -1.98112
H     -0.36248    -2.09654    -0.75744
N     -3.04035    -0.06710    -0.41701
H     -2.28134    -0.26854     0.22110
H     -3.38273     0.85165    -0.17247
H     -3.78037    -0.72420    -0.21000
N      3.26856    -0.50000     0.55166
H      3.80215     0.14733    -0.01416
H      3.79926    -1.35926     0.59396
H      2.42436    -0.70967     0.03497
