 28
-396.21973752212455
N      1.74616    -0.46348     2.87039
H      2.25156    -0.16100     3.69295
H      2.15126    -1.33980     2.56866
H      1.92388     0.21840     2.13848
N     -0.85465     1.88818    -0.88976
H     -0.05689     1.64146    -1.46345
H     -1.34124     1.01932    -0.70278
H     -1.46363     2.45063    -1.46604
N     -1.15476    -1.66699    -2.87686
H     -1.86453    -1.28343    -3.48923
H     -1.02861    -2.63452    -3.14824
H     -1.54472    -1.67794    -1.93618
N     -1.40305     0.30439     1.93986
H     -2.11397     0.55700     2.61540
H     -0.59336    -0.01472     2.46691
H     -1.12936     1.15442     1.45497
N     -2.15042    -1.92268     0.17483
H     -1.85014    -1.15090     0.78001
H     -3.08978    -2.17774     0.46174
H     -1.56235    -2.71827     0.40908
N      1.70797    -0.04105    -2.08825
H      2.50635    -0.51195    -2.49441
H      1.73348    -0.21499    -1.09017
H      0.87068    -0.50835    -2.42822
N      2.12265     1.99687     0.55522
H      2.57192     2.84524     0.87018
H      2.50028     1.78271    -0.35848
H      1.14152     2.21323     0.40945
