 28
-396.2196676984546
N      0.07979    -0.26281    -2.34210
H     -0.80949     0.17853    -2.55773
H     -0.13884    -1.14900    -1.90082
H      0.51976    -0.47560    -3.22761
N      2.20992     1.76447    -1.18025
H      2.33727     2.45572    -1.90951
H      3.03739     1.18004    -1.17183
H      1.43469     1.16826    -1.46757
N     -2.17608    -0.95739     0.78874
H     -1.85583    -0.32483     1.51066
H     -2.88091    -1.54773     1.20848
H     -1.37687    -1.54711     0.57892
N     -3.08915     0.58475    -2.10695
H     -3.45821     1.49177    -1.85193
H     -3.85704     0.03518    -2.47044
H     -2.78286     0.13628    -1.24665
N      0.93937    -2.20800     0.35717
H      1.52055    -2.98006     0.06546
H      1.22481    -1.39662    -0.18031
H      1.19586    -2.00294     1.31839
N      0.09416     1.62986     1.27264
H     -0.36958     2.48253     1.55599
H      0.86960     1.90311     0.67449
H     -0.55383     1.13687     0.66854
N      1.90928    -0.54078     3.23133
H      1.51515    -0.56139     4.16254
H      1.40133     0.16528     2.70674
H      2.86341    -0.21356     3.30869
