 24
-339.60707080667356
N     -0.15866    -3.84088     1.25526
H     -0.85915    -4.53214     1.01831
H     -0.30622    -3.05444     0.63530
H      0.74292    -4.23929     1.02616
N      1.89987     1.15634    -2.96723
H      1.40132     0.30297    -2.73399
H      1.81760     1.29477    -3.96612
H      2.87871     0.99903    -2.76584
N      0.18844    -1.61793    -2.04310
H      0.70078    -2.41274    -1.67991
H     -0.37195    -1.25986    -1.27497
H     -0.44575    -1.97990    -2.74452
N     -1.66976     2.43041     0.17697
H     -2.50710     2.83867    -0.21577
H     -1.21214     3.13404     0.74392
H     -1.04827     2.22365    -0.59801
N     -0.66835    -0.63530     0.78565
H      0.22740    -0.23698     0.53456
H     -1.32721     0.12951     0.86910
H     -0.57015    -1.10971     1.67249
N     -0.09529     2.88892     2.94729
H     -0.49317     2.10424     2.44489
H     -0.51888     2.90138     3.86652
H      0.89091     2.69492     3.06621
