 40
-566.0382434878024
N     -1.05350     3.26421    -0.38876
H     -0.08571     3.50755    -0.58058
H     -1.52585     4.11211    -0.11017
H     -1.03156     2.65049     0.41613
N      0.96819    -0.96892    -0.52802
H      0.98959    -1.92331    -0.86231
H      0.90672    -1.02052     0.48322
H      0.09984    -0.55902    -0.85215
N     -0.96545     0.87496    -2.68651
H     -1.13909     1.71475    -2.14322
H      0.02512     0.68492    -2.59169
H     -1.13628     1.09468    -3.65807
N     -2.50919     0.36248     0.80765
H     -3.29904     0.34528     1.44031
H     -2.55344    -0.49268     0.25413
H     -2.65626     1.13557     0.16740
N      3.44446     0.67561    -1.06595
H      2.60295     0.12325    -0.90639
H      3.82879     0.37674    -1.95463
H      4.11377     0.39666    -0.35780
N     -2.43803    -1.80265    -1.30083
H     -3.10886    -2.25979    -1.90295
H     -2.14584    -0.95062    -1.77231
H     -1.62132    -2.40208    -1.23517
N      0.75132    -2.64284     3.21356
H      1.73293    -2.64001     3.45617
H      0.24406    -3.00063     4.01203
H      0.47029    -1.67337     3.09509
N     -0.54779    -3.99042     0.26386
H     -0.48135    -4.99172     0.38106
H     -0.03011    -3.55945     1.02259
H     -1.51381    -3.72793     0.41067
N      0.05303     0.51077     2.30517
H      0.73469     0.81147     1.61624
H     -0.83049     0.39198     1.79403
H     -0.05631     1.28295     2.95289
N      2.31146     3.83583    -0.82432
H      2.62607     2.87078    -0.86849
H      2.85536     4.29171    -0.10341
H      2.56178     4.26310    -1.70653
