 36
-509.42944735562463
N      0.14827     1.39611    -1.62351
H     -0.29657     0.49171    -1.51125
H      0.79953     1.27991    -2.38748
H      0.71148     1.54315    -0.79645
N      2.53155     2.17051     1.76723
H      2.91885     2.13967     2.70072
H      3.15759     2.73569     1.20799
H      2.57450     1.22815     1.39351
N     -0.81064     2.66464     1.07825
H     -0.80620     2.60665     0.06499
H      0.14557     2.83492     1.37439
H     -1.35187     3.47688     1.34095
N      1.77792    -0.75063     0.27326
H      1.94280    -0.54811    -0.70497
H      0.78756    -0.59065     0.42066
H      1.89366    -1.74815     0.39293
N     -0.14216    -0.40323     2.80890
H     -0.15519    -0.57140     3.80396
H      0.82365    -0.44399     2.50787
H     -0.43571     0.55569     2.66871
N     -2.22328     0.04037     0.48249
H     -2.00160    -0.62308     1.21743
H     -1.72582     0.90100     0.71886
H     -3.21431     0.23671     0.57657
N      1.26009    -1.51931    -2.91759
H      1.41331    -2.18289    -2.16732
H      0.26357    -1.32620    -2.90127
H      1.46742    -1.99856    -3.78195
N     -1.99932    -0.73508    -2.33327
H     -1.98364     0.13607    -2.85022
H     -2.82034    -1.23984    -2.64293
H     -2.12050    -0.47260    -1.34926
N     -0.54454    -3.01269     0.45187
H     -0.97851    -2.40167    -0.22865
H     -1.12377    -3.83375     0.53229
H     -0.57849    -2.52638     1.33782
