 32
-452.8237970737747
N     -2.49658     0.09386    -0.22267
H     -3.39523     0.56522    -0.24099
H     -2.69615    -0.89779    -0.29262
H     -2.09733     0.25798     0.70295
N     -0.80947     1.87777    -1.97540
H     -1.02300     1.77713    -2.95962
H     -1.34778     1.17949    -1.46023
H     -1.18076     2.77892    -1.69554
N     -1.11928     0.74638     2.53867
H     -1.78128     1.45207     2.84232
H     -0.69656     0.37968     3.38488
H     -0.39154     1.24761     2.01667
N      0.83531     2.33884     1.00268
H      0.65230     2.19029     0.01519
H      0.89448     3.33749     1.15571
H      1.75596     1.95258     1.19725
N      2.00065    -0.61796    -1.41279
H      1.37827     0.14017    -1.66366
H      2.36883    -0.99997    -2.27140
H      1.41790    -1.33028    -0.98741
N     -2.21924    -2.79562    -1.91981
H     -2.61379    -3.30705    -2.69585
H     -2.18877    -1.81656    -2.17125
H     -1.25522    -3.07989    -1.81338
N     -0.08956    -2.43597     0.57264
H     -1.03187    -2.71694     0.34032
H      0.25106    -3.07008     1.28177
H     -0.17063    -1.52664     1.00927
N      3.70349     0.50404     1.30879
H      3.70719    -0.21227     2.02296
H      4.66524     0.72358     1.08663
H      3.28914     0.08668     0.48006
