 36
-509.4272053910795
N      1.05062    -1.83186     1.25379
H      0.91497    -1.50524     2.19974
H      0.23437    -1.56923     0.71827
H      1.06269    -2.84033     1.28030
N     -0.05677     2.37896    -1.51906
H     -0.38710     1.57042    -2.03103
H     -0.48887     2.36347    -0.60307
H     -0.40739     3.19937    -1.99646
N      2.89695     2.70560    -1.86284
H      1.90210     2.52900    -1.70771
H      3.00565     2.93184    -2.84425
H      3.13969     3.53854    -1.33996
N     -2.02766    -0.33845    -0.42728
H     -2.98259    -0.20117    -0.73727
H     -1.75296     0.52399     0.02490
H     -1.45314    -0.45959    -1.26315
N     -0.06246     1.60848     1.69861
H      0.58037     1.37601     0.94896
H     -0.11421     0.78729     2.29158
H      0.39155     2.33546     2.23659
N     -2.35645    -2.61404     1.44340
H     -3.20901    -2.35407     1.92634
H     -2.18393    -1.88291     0.74632
H     -2.55866    -3.47742     0.95307
N      2.17125    -0.51369    -1.15152
H      2.60480     0.40148    -1.06327
H      1.99350    -0.90568    -0.22679
H      2.86441    -1.10961    -1.59030
N     -1.13460    -0.73058     3.68814
H     -1.34992    -1.03461     4.62781
H     -1.41750    -1.46609     3.04259
H     -1.71885     0.07257     3.49595
N     -0.17990    -0.80879    -2.83554
H      0.65921    -0.66219    -2.24900
H     -0.29458    -1.81208    -2.94244
H      0.03471    -0.45577    -3.76152
