 40
-566.0362050041314
N     -1.64562    -2.72696    -2.20004
H     -1.24742    -2.83445    -3.12727
H     -2.12585    -1.82314    -2.20796
H     -2.35081    -3.44930    -2.10868
N     -2.32737    -0.26449     0.89027
H     -1.41091    -0.28565     1.31213
H     -2.80777    -1.08456     1.23196
H     -2.14822    -0.42417    -0.09361
N     -0.71592     1.57852    -3.53531
H      0.08455     1.41104    -2.92240
H     -0.43558     1.31660    -4.47304
H     -0.90716     2.57353    -3.55049
N      1.28841     2.59310     0.90630
H      0.74058     2.64656     0.05640
H      0.66845     2.19353     1.61917
H      1.50311     3.54795     1.16544
N      1.23245    -1.05902     4.17867
H      1.89462    -0.70909     4.86021
H      1.14831    -2.05582     4.33850
H      1.65794    -0.91750     3.26465
N     -0.54201     1.58469     2.95518
H     -1.44346     1.31552     2.57502
H     -0.19667     0.82106     3.53427
H     -0.71039     2.37312     3.56774
N      2.64451    -0.36132     1.60917
H      2.50514    -0.73440     0.67551
H      2.41940     0.63058     1.55926
H      3.63842    -0.42001     1.79725
N      1.19539    -2.36362    -0.70366
H      1.10060    -2.29094     0.30128
H      0.25309    -2.42300    -1.08079
H      1.64602    -3.24787    -0.89748
N     -2.94069    -0.01415    -2.36977
H     -2.16259     0.52478    -2.76800
H     -3.67270    -0.05872    -3.07160
H     -3.31506     0.51781    -1.59264
N      1.70384     0.85959    -1.88924
H      2.57967     0.91800    -2.39282
H      1.49933    -0.12911    -1.77025
H      1.85316     1.23976    -0.95818
