 24
-339.6115443357119
N      2.02142     0.27052     3.26796
H      1.06843    -0.03028     3.07884
H      2.40418    -0.37074     3.95037
H      1.95698     1.17936     3.70657
N     -1.27025    -0.74542     2.70789
H     -1.58036    -0.61496     1.75024
H     -1.31669    -1.73800     2.89522
H     -1.94590    -0.28919     3.30458
N      0.31081    -1.46638    -2.91379
H      0.83216    -0.71920    -2.46952
H      0.92841    -1.90945    -3.58037
H     -0.41434    -1.00175    -3.44695
N     -0.17593     2.24541    -2.21294
H      0.31051     2.51686    -3.05686
H     -0.43643     3.09943    -1.73789
H      0.50425     1.78167    -1.61724
N     -2.06233    -0.43414    -0.63322
H     -1.83612     0.45530    -1.06017
H     -1.49793    -1.12252    -1.11675
H     -3.02567    -0.63215    -0.86295
N      1.34468    -0.01382    -0.13804
H      1.99972     0.19100     0.60369
H      0.42802    -0.01448     0.29154
H      1.51015    -0.96824    -0.42685
