 24
-339.6099178484432
N      0.54064    -1.57310     0.09120
H      1.20847    -2.30288     0.30203
H      1.03951    -0.77390    -0.29383
H      0.16097    -1.25621     0.97631
N      1.67006     1.26064    -0.86874
H      2.23588     1.69234    -1.58676
H      0.74624     1.67541    -0.91057
H      2.06282     1.53137     0.02710
N      0.53728    -4.54481    -0.88200
H      0.14450    -3.60968    -0.88892
H      0.84490    -4.74527    -1.82610
H     -0.21571    -5.18600    -0.66306
N     -2.78940     1.94087     0.91761
H     -2.37451     1.36129     0.19273
H     -3.44937     1.36283     1.42161
H     -3.31980     2.66710     0.45371
N     -1.43850     0.07411    -1.52352
H     -0.67106     0.43835    -2.07297
H     -1.05507    -0.73940    -1.04721
H     -2.13784    -0.24818    -2.18207
N      1.89749     2.47810     2.28338
H      0.90546     2.34156     2.12209
H      2.14253     1.94080     3.10387
H      2.03031     3.45713     2.49763
