 36
-509.424608869288
N     -1.53265    -0.05196    -3.03110
H     -2.17011     0.40935    -3.66672
H     -2.09204    -0.40159    -2.26206
H     -0.91548     0.65273    -2.62114
N      0.84763     2.80022     2.36078
H      1.26840     3.66222     2.04113
H     -0.05907     2.70552     1.90527
H      0.66001     2.92600     3.34799
N      2.38822     0.20556     0.13270
H      3.39045     0.24702     0.02557
H      2.08396     1.07457     0.55262
H      2.19402    -0.50175     0.82870
N     -1.39944    -3.94539    -0.31448
H     -1.99647    -4.45927    -0.94890
H     -0.71239    -3.46207    -0.88732
H     -0.89098    -4.62354     0.23774
N     -0.92632    -0.58317     0.34925
H     -1.46260    -1.44471     0.31859
H     -0.38866    -0.54969    -0.50714
H     -0.25338    -0.68949     1.10108
N      1.34576    -0.35925     3.28905
H      1.29399     0.60118     2.96057
H      0.49908    -0.53366     3.81636
H      2.12033    -0.41603     3.93761
N      0.29013     1.88275    -1.72872
H     -0.12667     2.27932    -0.89614
H      1.10495     1.35824    -1.42216
H      0.61808     2.64332    -2.30742
N     -1.92907     2.11306     1.04576
H     -2.57128     2.01953     1.82549
H     -2.47831     2.47581     0.27452
H     -1.63495     1.16701     0.78097
N      0.81876    -2.23515    -2.28449
H      1.37828    -1.61313    -1.71705
H      1.44579    -2.68074    -2.93774
H      0.18406    -1.65068    -2.81962
