 24
-339.61158483344053
N      1.51706    -1.61524     0.28150
H      1.38844    -0.76573     0.82688
H      2.30432    -1.45811    -0.33448
H      1.78717    -2.34405     0.92881
N     -1.57424    -0.65673    -0.42536
H     -1.92552    -0.78504     0.51514
H     -2.16617    -1.19655    -1.03997
H     -0.65110    -1.07988    -0.43720
N      2.32977    -2.70246    -2.84834
H      2.49120    -3.68161    -3.04628
H      2.00892    -2.26504    -3.70237
H      1.56692    -2.65389    -2.18584
N     -0.45709     2.65047    -0.86003
H     -1.21975     3.18316    -1.25635
H     -0.73610     1.67369    -0.88637
H      0.32381     2.73693    -1.49759
N     -2.56940     1.38145     2.04633
H     -1.97594     2.19182     2.17013
H     -3.50991     1.66263     2.28635
H     -2.55372     1.19492     1.05042
N      0.81012     1.18601     2.09937
H     -0.12523     0.92270     2.38589
H      1.28531     1.55838     2.90782
H      0.70899     1.93470     1.42737
