 40
-566.030771583377
N      0.15562    -0.62893    -2.12758
H     -0.27274    -1.25314    -1.45059
H     -0.02106     0.31273    -1.80225
H     -0.30373    -0.73251    -3.01933
N     -0.67145    -2.03597     0.50421
H     -0.28100    -1.10632     0.70035
H     -1.44240    -2.15499     1.14753
H      0.04456    -2.70051     0.77284
N     -3.90600    -2.23211     0.01539
H     -2.95640    -2.40302    -0.29377
H     -4.29759    -3.11405     0.31507
H     -4.42778    -1.92514    -0.79431
N     -2.65594     0.67435     1.37727
H     -3.12336     1.07668     2.17838
H     -3.16546    -0.16727     1.13232
H     -1.72245     0.39723     1.65723
N      0.38574     0.51179     1.63150
H      1.39352     0.36255     1.62096
H      0.19741     1.42368     1.22545
H      0.12708     0.56544     2.60797
N      0.19600     3.35399    -0.31218
H     -0.64353     2.92925    -0.72435
H     -0.10097     3.99952     0.41135
H      0.64184     3.91906    -1.02677
N      2.41770    -2.68835    -0.46278
H      3.07518    -2.47148    -1.20132
H      1.53113    -2.83739    -0.92756
H      2.29362    -1.83871     0.07343
N      2.48788     1.41811    -0.75473
H      2.06116     0.63718    -1.24745
H      1.73430     2.06403    -0.50571
H      3.09671     1.88090    -1.41772
N      3.46236    -0.15800     1.65970
H      3.83777    -1.03976     1.33652
H      3.30961     0.44238     0.84764
H      4.16565     0.27335     2.24476
N     -2.19462     1.91218    -1.27356
H     -3.01683     2.38505    -1.62787
H     -2.41757     1.54795    -0.33937
H     -2.05781     1.09842    -1.86189
