 24
-339.6093297861446
N      2.55259    -0.67655    -0.52833
H      3.43041    -0.35330    -0.90867
H      2.04515     0.14077    -0.21343
H      2.75501    -1.21896     0.30388
N     -2.16124     3.06674     1.26594
H     -1.58302     2.45031     1.82028
H     -2.23576     2.64466     0.35157
H     -1.64125     3.92564     1.15201
N      0.08302    -1.85140    -2.47111
H      0.38077    -1.91371    -3.43587
H      0.90901    -1.63779    -1.91916
H     -0.22584    -2.77517    -2.19813
N     -1.80130     1.01491    -1.84125
H     -2.75733     0.84244    -2.12010
H     -1.41175     1.67322    -2.50243
H     -1.29562     0.14442    -1.97280
N     -0.40637    -0.09911     1.11454
H     -1.16991    -0.60180     1.55330
H     -0.84151     0.52920     0.44922
H      0.10204    -0.78451     0.56687
N      1.90618    -1.68155     2.57922
H      1.37775    -2.49048     2.88237
H      2.46124    -1.37925     3.37082
H      1.23104    -0.94819     2.38350
