 36
-509.4263376666079
N     -2.19784    -0.38972    -2.44089
H     -1.37167    -0.96910    -2.33850
H     -2.40048    -0.32930    -3.42889
H     -1.93454     0.53874    -2.13125
N     -2.39000    -2.18875     0.37215
H     -2.88373    -1.69002    -0.35753
H     -1.43410    -2.24293     0.04254
H     -2.75449    -3.12923     0.39509
N      3.19303     0.35558     0.56684
H      2.60546     0.83073    -0.11013
H      4.07237     0.85535     0.59628
H      3.38820    -0.57059     0.20251
N      3.42120    -2.93847    -0.55911
H      4.12710    -3.22061    -1.22530
H      3.51257    -3.53872     0.24958
H      2.52409    -3.14577    -0.97425
N     -2.92545     2.36953    -0.62330
H     -2.76066     2.02189     0.31748
H     -3.50454     3.19311    -0.54759
H     -3.46732     1.65295    -1.08730
N     -1.84869     0.74513     2.10866
H     -1.96961    -0.20010     1.76285
H     -0.86115     0.97002     2.05490
H     -2.12046     0.75354     3.08069
N      0.53677     2.19831    -0.64206
H      0.80585     2.32329     0.32732
H      0.86001     3.01294    -1.14645
H     -0.47736     2.25178    -0.64948
N      1.41169     1.23696     2.73261
H      2.04686     0.80484     2.06170
H      1.96969     1.69387     3.44238
H      0.90458     0.49164     3.19508
N      0.83504    -1.17762    -1.30101
H      1.67691    -1.18822    -1.85843
H      0.45614    -0.23966    -1.36838
H      1.14217    -1.24993    -0.34051
