 36
-509.42685777945076
N     -1.36249     2.54861    -2.90666
H     -1.67117     2.76167    -3.84435
H     -0.41260     2.19563    -2.96484
H     -1.92827     1.78341    -2.56558
N     -0.74821     3.41251     0.31325
H      0.05767     2.80160     0.35666
H     -1.00592     3.45005    -0.66586
H     -0.43355     4.33287     0.58627
N      1.41431     0.04191     0.17956
H      1.63128    -0.93234     0.01418
H      1.77789     0.26621     1.09365
H      0.40647     0.09423     0.26204
N      1.73397    -2.71334     2.29257
H      2.72237    -2.57695     2.47028
H      1.25934    -1.82869     2.48112
H      1.40714    -3.38143     2.98055
N     -2.11035     0.50975     1.36455
H     -2.02479     1.49202     1.11513
H     -2.12021    -0.01463     0.49226
H     -3.01606     0.38147     1.79634
N      0.02870    -0.29102     3.21301
H     -0.42195    -1.03180     3.74171
H      0.13117     0.48495     3.85944
H     -0.64832    -0.00082     2.49524
N      1.85270     1.22634    -2.70056
H      1.87785     0.93514    -1.72740
H      2.20258     0.44618    -3.24214
H      2.52657     1.97444    -2.80508
N      0.37746    -3.48171    -0.31754
H     -0.49578    -3.90115    -0.01829
H      0.88707    -4.19664    -0.82275
H      0.89407    -3.25445     0.53107
N     -1.19869    -0.88983    -1.58360
H     -0.65632    -1.64514    -1.16662
H     -1.63624    -1.27692    -2.40958
H     -0.51459    -0.21346    -1.90376
