 24
-339.6104307951726
N     -1.21161    -2.50956     2.01330
H     -1.17973    -3.49448     1.79047
H     -0.31229    -2.26253     2.40375
H     -1.89151    -2.39732     2.75274
N      0.98741     1.93797     1.76396
H      0.56474     2.13923     0.85943
H      0.35167     1.28324     2.20220
H      0.96419     2.79054     2.30953
N     -0.44607     2.11671    -1.21350
H     -1.34624     1.72586    -0.94761
H     -0.62345     2.83157    -1.90545
H      0.05292     1.36823    -1.67882
N      0.34220    -1.41706    -1.44481
H      0.56402    -2.11562    -2.13955
H      1.21085    -0.96421    -1.18045
H      0.00399    -1.89732    -0.62222
N     -2.69265    -0.27169    -0.62473
H     -3.45843    -0.64213    -1.17121
H     -2.65867    -0.79033     0.24123
H     -1.83417    -0.48481    -1.12471
N      3.14829     0.38477    -0.41059
H      2.62790     0.87771     0.31170
H      3.91897    -0.07477     0.05567
H      3.55100     1.09952    -1.00281
