 36
-509.42987750618107
N     -1.94396     3.17209    -1.77020
H     -2.41789     3.01742    -2.65289
H     -2.06963     2.32830    -1.20236
H     -2.44550     3.92149    -1.30725
N      0.90271     2.76621    -0.35830
H      1.33236     2.06649    -0.95655
H      0.11852     3.16396    -0.87198
H      1.58518     3.50263    -0.22547
N      2.54585    -0.53438     0.08818
H      2.16803    -0.51517    -0.85110
H      3.43623    -0.05860     0.06590
H      1.92003     0.02522     0.65239
N      2.45488    -3.52062     1.64850
H      2.64840    -4.29504     1.02760
H      2.64423    -2.66428     1.13543
H      3.11686    -3.56448     2.41208
N     -0.64912    -1.77431     2.05830
H     -1.08353    -2.11914     2.90191
H      0.21195    -2.29798     1.94088
H     -0.37323    -0.81364     2.23352
N     -1.43040    -2.56436    -1.15645
H     -1.36065    -2.35947    -0.16292
H     -2.12094    -3.29276    -1.27203
H     -0.53409    -2.96637    -1.40170
N      0.40388     0.13637    -2.48256
H     -0.21522    -0.54012    -2.05108
H      0.37881    -0.04901    -3.47558
H     -0.03896     1.03485    -2.33836
N      0.02186     1.60943     2.19982
H      0.29599     1.98441     1.28667
H      0.67727     1.96351     2.88607
H     -0.87131     2.03885     2.41540
N     -2.32933     0.67136    -0.23050
H     -2.26333    -0.12330    -0.85716
H     -1.67947     0.48422     0.52250
H     -3.26125     0.63788     0.16499
