 36
-509.4301790709369
N     -0.16725     2.24138    -1.22365
H      0.02836     2.26674    -0.22977
H     -1.18189     2.24282    -1.31235
H      0.16031     3.11995    -1.60761
N      0.79723     1.00315     2.10548
H      1.22753     1.77628     2.59504
H      0.63783     0.27420     2.79814
H      1.49550     0.63584     1.46318
N     -0.71920    -1.70520    -1.24542
H     -1.13882    -0.83692    -0.92925
H     -0.22480    -1.43958    -2.09350
H     -1.47865    -2.31553    -1.51797
N     -1.93619     0.51016     1.09761
H     -2.52122     0.64733     1.91723
H     -1.89296    -0.49582     0.96758
H     -0.98092     0.78110     1.36483
N     -3.31221     2.10517    -1.04763
H     -2.86531     1.57039    -0.29797
H     -3.80426     1.44146    -1.63474
H     -4.00799     2.70762    -0.62562
N      0.54954    -1.94866     3.75234
H      1.29914    -2.34315     4.30615
H      0.71818    -2.23247     2.78974
H     -0.30982    -2.39597     4.04336
N      0.62159     0.11071    -3.24611
H      1.60886     0.27833    -3.39060
H      0.14076     0.39851    -4.08915
H      0.31735     0.74179    -2.49729
N      1.42462    -2.68045     0.61283
H      1.84597    -3.52957     0.25924
H      0.66025    -2.42486    -0.01306
H      2.12098    -1.94982     0.52400
N      2.68438     0.30979    -0.68378
H      2.22210     1.14338    -1.02020
H      3.62652     0.30463    -1.04792
H      2.17994    -0.46513    -1.09429
