 24
-339.6078068584033
N      0.38946    -1.93587     3.19399
H      0.20242    -1.66027     4.14921
H      1.13440    -1.33833     2.84551
H      0.74603    -2.88218     3.21912
N      0.78278     2.07942     0.44834
H      0.21742     1.92106    -0.38044
H      0.40247     1.47637     1.16815
H      0.61639     3.03174     0.74850
N     -0.33907    -0.58857    -3.65699
H      0.27074    -1.27886    -4.07536
H     -1.07959    -1.08390    -3.17714
H      0.18839    -0.11265    -2.93734
N     -1.24615     1.77678    -1.84825
H     -1.81162     2.61272    -1.74945
H     -1.83775     0.98590    -1.60916
H     -1.03441     1.67437    -2.83398
N     -2.53464    -1.26566    -0.72050
H     -2.78420    -2.22195    -0.93211
H     -3.31287    -0.85869    -0.21809
H     -1.76171    -1.30556    -0.06620
N      2.79587     0.10717     1.93229
H      3.41420    -0.44281     1.34833
H      2.38649     0.81804     1.33306
H      3.37883     0.58511     2.60823
