 36
-509.4290712265391
N     -1.97049     2.80109    -2.65237
H     -1.65972     2.75129    -1.67954
H     -1.60863     3.66326    -3.04737
H     -2.97969     2.90198    -2.63227
N      3.02341    -1.83483     1.36422
H      2.37185    -1.56594     2.09847
H      3.52099    -2.65390     1.68511
H      3.69934    -1.08507     1.28569
N      0.73136    -1.83163    -1.27627
H      0.70560    -0.85441    -1.58433
H      1.40273    -1.89493    -0.51684
H      1.09455    -2.39208    -2.03573
N      1.72293     1.35334     1.13834
H      2.57632     1.89344     1.10585
H      1.76963     0.76883     1.96194
H      1.74034     0.71404     0.35213
N     -2.52218    -0.64655    -1.11665
H     -3.33732    -1.09411    -1.51159
H     -2.37723     0.21410    -1.63016
H     -1.72796    -1.23732    -1.32957
N     -0.86346    -2.39129     1.26985
H     -0.40315    -2.24909     0.36924
H     -1.04950    -3.37929     1.38122
H     -1.76055    -1.92704     1.19765
N      0.75990     0.99478    -2.15033
H      0.82007     1.64236    -1.37480
H      1.57612     1.13377    -2.73246
H     -0.05263     1.27634    -2.68973
N      0.59706    -0.87702     3.34909
H      0.24409     0.06306     3.21430
H      0.13301    -1.45289     2.63550
H      0.26475    -1.17949     4.25663
N     -1.39992     2.21360     0.24566
H     -1.71110     1.25308     0.11656
H     -0.53218     2.16078     0.76712
H     -2.07832     2.66844     0.84266
