 36
-509.426064876554
N      4.94415     1.01030     0.05337
H      5.82167     0.50665     0.08347
H      5.16194     1.99757     0.09508
H      4.44411     0.78383     0.90920
N      0.48025     2.41473    -1.37429
H      0.61004     2.60034    -2.36276
H      0.98666     1.54622    -1.17628
H      0.98105     3.15338    -0.89195
N      0.14783     0.54973     2.03242
H     -0.25613    -0.33908     1.75091
H     -0.46270     0.96278     2.72435
H      0.12082     1.15125     1.21875
N      1.91236    -0.09023    -0.79689
H      1.75650    -0.89129    -1.39496
H      2.89145     0.16246    -0.88635
H      1.77056    -0.40960     0.15445
N     -4.26540    -0.63329    -2.41608
H     -3.69489    -0.01253    -1.83781
H     -3.76423    -0.77104    -3.28674
H     -5.12526    -0.14548    -2.63895
N     -3.46950    -2.57169    -0.09643
H     -3.82032    -2.07751    -0.91692
H     -3.55382    -3.56442    -0.28545
H     -4.10239    -2.36997     0.66962
N     -2.60130     1.19567    -0.66658
H     -3.18267     1.87831    -0.19676
H     -2.21127     0.59861     0.05385
H     -1.81520     1.69723    -1.07190
N      3.34932     0.10130     2.96145
H      2.36472     0.16560     2.71901
H      3.51240    -0.84144     3.28970
H      3.49823     0.72157     3.74646
N     -0.54680    -2.00707     0.24517
H     -1.54739    -2.18799     0.13015
H     -0.05851    -2.87389     0.04811
H     -0.27690    -1.35390    -0.48350
