 24
-339.61037210654047
N     -4.05812    -2.50365     1.60159
H     -3.44544    -1.74722     1.32695
H     -4.79032    -2.10752     2.17556
H     -3.51567    -3.13153     2.18030
N      3.33180     1.75630     1.57309
H      3.27125     1.30849     2.47810
H      3.88870     2.59288     1.68596
H      2.39539     2.06343     1.32723
N      0.43594     2.59961    -0.11747
H     -0.02578     3.42597    -0.47333
H      1.05663     2.25859    -0.84691
H     -0.27202     1.88573    -0.00110
N      0.27267    -1.28890    -0.50805
H      0.70859    -1.70506     0.30617
H      0.71844    -0.38853    -0.62913
H     -0.69676    -1.11845    -0.26958
N     -2.75614    -1.32746    -1.14236
H     -2.01357    -1.79201    -1.64844
H     -3.26139    -0.75600    -1.80614
H     -3.39403    -2.03953    -0.80717
N      2.73480     0.67015    -1.68385
H      3.34429     0.89909    -2.45576
H      3.26370     0.78537    -0.82608
H      2.49655    -0.30881    -1.76033
