 20
-283.0084959410513
N     -1.27560    -2.31755    -0.44972
H     -1.85016    -3.03948    -0.86489
H     -1.51177    -2.27502     0.53455
H     -1.57168    -1.42876    -0.84508
N      2.10515    -1.84356    -0.64723
H      1.09798    -1.98289    -0.63022
H      2.39290    -1.91307    -1.61510
H      2.51874    -2.62619    -0.15647
N      2.20824     1.28064     0.79883
H      2.56043     1.87530     0.06015
H      2.93685     1.20470     1.49628
H      2.08249     0.35591     0.39729
N     -2.05601     0.85407    -1.40872
H     -1.84951     1.19584    -0.47406
H     -1.32883     1.22534    -2.00752
H     -2.92887     1.27610    -1.69656
N     -1.03248     1.98703     1.68330
H     -1.27685     1.51377     2.54290
H     -0.09156     1.69015     1.43809
H     -0.98454     2.97637     1.88981
