 36
-509.42871225937665
N      1.09600     2.58832    -1.62789
H      1.87273     2.69490    -2.27269
H      0.56839     3.45204    -1.68874
H      1.49429     2.55219    -0.68708
N      1.98572    -0.43914    -0.84512
H      1.75443    -1.28706    -1.35284
H      1.49198     0.33269    -1.28500
H      2.97284    -0.27148    -0.98733
N      2.24473     2.34438     1.15177
H      3.09482     2.64863     1.60854
H      1.46660     2.56490     1.76753
H      2.26987     1.33273     1.08765
N     -0.60196     2.69956     2.99031
H     -0.97649     1.79333     2.72136
H     -0.78817     2.82701     3.97699
H     -1.15526     3.39221     2.49991
N     -1.65939    -0.28309     2.58594
H     -2.50004    -0.80450     2.80843
H     -1.09568    -0.85981     1.94010
H     -1.13521    -0.20493     3.45112
N     -1.90135     0.42536    -0.65411
H     -1.09435     0.95433    -0.96516
H     -2.71755     0.93356    -0.96937
H     -1.89871     0.45979     0.36142
N     -2.09987    -2.24698    -1.82199
H     -2.93328    -2.68600    -1.44648
H     -1.96554    -1.36517    -1.30974
H     -2.32784    -1.97511    -2.77329
N      0.01163    -1.97048     0.93347
H      0.48152    -2.63463     1.53849
H     -0.39416    -2.50330     0.17408
H      0.73431    -1.37979     0.51871
N      0.94767    -3.16417    -2.72403
H      1.10308    -4.15393    -2.58261
H     -0.01530    -2.96371    -2.46241
H      1.02821    -2.98407    -3.71677
