 20
-283.0088260232639
N     -1.69443     1.36818    -0.90896
H     -2.64719     1.52415    -1.21043
H     -1.66462     0.47169    -0.43379
H     -1.48368     2.05892    -0.19749
N     -0.08203    -1.56557    -2.02462
H     -0.51595    -0.67626    -2.23608
H     -0.55132    -2.26517    -2.58179
H     -0.29392    -1.75616    -1.05390
N      1.55260     0.09498     2.36083
H      2.32979    -0.50935     2.59385
H      1.67427     0.37165     1.39013
H      1.64322     0.93410     2.91854
N     -1.53437    -1.08552     1.38396
H     -0.61992    -0.87979     1.77305
H     -1.81207    -1.99492     1.72380
H     -2.17062    -0.41061     1.78844
N      1.81448     0.99779    -0.91300
H      2.50344     1.55500    -1.39848
H      1.81541     0.07954    -1.34162
H      0.90536     1.38936    -1.12612
