 24
-339.6134638251495
N     -2.62400    -0.57301     0.74538
H     -2.20069     0.29994     0.45339
H     -2.41694    -1.24270     0.01569
H     -3.62425    -0.43453     0.75293
N     -0.47903     2.35422    -1.82170
H     -0.35335     2.17895    -0.83005
H      0.01374     3.21057    -2.03463
H     -1.46373     2.52808    -1.96718
N      1.10435    -0.61205    -1.52868
H      0.77113    -0.03161    -0.76825
H      1.02637    -0.03365    -2.35396
H      0.43333    -1.35971    -1.63357
N     -0.08320     1.47465     1.50642
H     -0.20996     2.22658     2.16707
H     -0.63138     0.68984     1.83061
H      0.89172     1.19555     1.54714
N     -0.71607    -3.00202     0.14048
H     -1.14335    -2.54373     0.93567
H      0.23906    -2.67016     0.10261
H     -0.68916    -3.99507     0.32851
N      3.03664     0.15611     0.84400
H      3.72858     0.82119     0.52246
H      3.53194    -0.55291     1.36976
H      2.65012    -0.28669     0.01570
