 24
-339.611553045296
N      1.31963    -2.97064     1.20504
H      2.10879    -3.56134     1.43783
H      1.68148    -2.02789     1.07688
H      0.71235    -2.94495     2.01502
N      0.39410     2.61815     1.17877
H      0.74128     3.55185     1.00200
H     -0.28701     2.42399     0.45217
H     -0.12261     2.65570     2.04803
N      0.51059    -1.54109    -1.67794
H      1.12245    -1.68959    -2.46830
H      0.80508    -0.67960    -1.23251
H      0.68946    -2.28056    -1.00404
N     -2.14140     2.52084    -1.20799
H     -2.30051     1.51671    -1.20085
H     -3.02775     2.96198    -0.99899
H     -1.90173     2.77115    -2.15870
N     -2.59109    -0.85565    -1.02282
H     -1.68944    -1.15027    -1.39162
H     -2.59400    -1.15395    -0.05364
H     -3.30400    -1.39693    -1.49756
N      2.67703     0.06264     1.14696
H      3.49279     0.35695     0.62738
H      2.02150     0.83764     1.14693
H      2.97124    -0.07263     2.10620
