 12
-169.79436024235508
N     -0.20322     1.36616    -0.07196
H     -0.90047     0.63303    -0.13354
H     -0.27781     1.92429    -0.91113
H      0.71193     0.93136    -0.07804
N      3.01806    -0.20560     0.03867
H      2.82243    -1.09389     0.48000
H      3.60992    -0.38214    -0.76158
H      3.54532     0.35118     0.69705
N     -2.82416    -1.02015     0.05765
H     -2.56338    -1.62125     0.82761
H     -3.55024    -0.39971     0.38998
H     -3.21941    -1.59897    -0.67079
