 20
-283.0047614771853
N     -0.94373     1.14731    -0.18658
H      0.01440     0.81728    -0.25518
H     -1.44235     0.46735     0.37600
H     -1.33995     1.11382    -1.11889
N      0.97220    -3.15301     0.81693
H      0.16133    -3.14060     0.20626
H      1.45616    -4.02766     0.66100
H      0.62894    -3.16926     1.76863
N      2.06099    -0.12835    -0.29530
H      2.71058    -0.22153    -1.06575
H      2.50050     0.47570     0.38933
H      1.97503    -1.04463     0.13778
N     -1.06739    -2.05962    -1.49527
H     -1.04376    -2.20333    -2.49559
H     -1.80586    -1.39828    -1.30455
H     -0.20578    -1.59212    -1.24489
N     -1.23257     4.20593     1.10191
H     -0.92025     4.18146     2.06483
H     -1.09442     3.27338     0.71992
H     -0.60744     4.82690     0.60298
