 36
-509.4281642905644
N      0.62472     3.41541    -2.09610
H      1.43120     3.87860    -2.50123
H      0.15391     4.10805    -1.52302
H      0.97621     2.68636    -1.46604
N      0.66450     1.41254     2.55866
H      0.99894     1.12250     3.47204
H      0.22713     2.31872     2.69325
H     -0.07784     0.75361     2.28779
N      1.58993     1.15763    -0.40692
H      1.21301     0.24879    -0.65256
H      2.59159     1.09264    -0.54010
H      1.41454     1.32058     0.58386
N      1.56736    -1.98478     1.69193
H      1.15609    -2.10621     0.76809
H      1.67164    -0.98582     1.82092
H      2.49862    -2.37992     1.65925
N     -1.48886     0.21123    -1.56817
H     -0.87635     0.94486    -1.22778
H     -1.65608     0.44080    -2.54437
H     -2.36608     0.34277    -1.07669
N     -0.46687    -3.08048     3.56465
H     -0.09217    -3.06253     4.50519
H     -0.64732    -4.05061     3.33387
H      0.26570    -2.74541     2.93321
N     -1.16225     1.65660    -4.19257
H     -1.69941     2.30410    -4.75562
H     -0.50910     1.18534    -4.80731
H     -0.60771     2.20777    -3.53727
N      0.02495    -2.29261    -1.34470
H     -0.62024    -3.05853    -1.18190
H     -0.53853    -1.45020    -1.51368
H      0.50461    -2.51243    -2.20959
N     -1.44508    -0.50837     1.80142
H     -1.27375    -1.32090     2.39295
H     -2.38816    -0.19545     1.99530
H     -1.43192    -0.82785     0.83932
