 28
-396.22215452358563
N      1.96502    -0.68966    -2.12851
H      2.28107    -1.36013    -1.43792
H      2.09659     0.21753    -1.70141
H      2.59290    -0.74658    -2.91695
N      1.80678     1.14219     0.89021
H      2.45498     1.60810     1.50673
H      0.94619     1.00638     1.40947
H      2.16568     0.20896     0.72456
N     -1.09159    -0.36794     2.15339
H     -1.74355     0.34650     1.84703
H     -1.27015    -1.19067     1.59064
H     -1.32702    -0.59674     3.10817
N     -0.36537     1.96462    -1.62557
H     -0.12895     2.64158    -2.33644
H      0.32302     2.04794    -0.88453
H     -0.22491     1.04702    -2.02700
N     -1.06898    -1.85770    -1.03000
H     -1.87196    -2.07226    -1.60325
H     -1.27993    -0.99862    -0.53695
H     -0.30694    -1.62745    -1.65960
N     -3.00900     2.05802     0.56645
H     -3.07652     2.98763     0.95740
H     -2.28913     2.09055    -0.14880
H     -3.88230     1.86112     0.09656
N      1.70436    -2.26271     0.98851
H      1.27881    -1.61784     1.64197
H      2.09707    -3.01703     1.53291
H      0.93395    -2.64188     0.45086
