 36
-509.4285955068506
N     -1.12167     1.89189    -1.02603
H     -1.32825     2.33718    -1.90825
H     -0.29251     1.32836    -1.15760
H     -1.88449     1.26316    -0.80236
N      1.32075     3.18848     0.23195
H      0.40683     2.89325    -0.10888
H      1.43113     2.76674     1.14725
H      1.29307     4.19106     0.37409
N      3.49838     1.98668    -1.67299
H      2.85146     2.51456    -1.08946
H      4.41163     2.41592    -1.59507
H      3.18791     2.09026    -2.63113
N     -0.82925    -4.41790    -0.50602
H     -1.46416    -4.67961    -1.24993
H     -0.43968    -3.51403    -0.77063
H     -0.06883    -5.08813    -0.51174
N     -3.39925    -0.39178     0.12054
H     -4.11322     0.00502     0.71675
H     -3.84836    -1.11681    -0.42372
H     -2.74361    -0.87077     0.73221
N     -0.93374    -1.97314     1.83291
H     -0.11802    -1.49705     1.46691
H     -0.65668    -2.40780     2.70317
H     -1.13262    -2.72875     1.18434
N      1.95028    -0.05138     0.15529
H      2.46070     0.59121    -0.44817
H      1.53343     0.48234     0.91245
H      2.63940    -0.66215     0.57482
N     -0.40292     1.11942     2.32618
H     -0.82004     0.19649     2.37858
H     -0.58747     1.58771     3.20333
H     -0.91386     1.62659     1.61427
N     -0.08699    -1.51286    -1.43151
H      0.64082    -0.99305    -0.92809
H      0.14373    -1.49381    -2.41950
H     -0.95355    -0.99621    -1.32798
