 36
-509.4296139769508
N     -1.45991     1.81019    -1.01120
H     -1.11862     1.38312    -1.88010
H     -2.21775     2.43552    -1.26627
H     -0.72131     2.40217    -0.64376
N      0.52506     2.92440     1.43814
H      0.55921     3.26961     2.38530
H     -0.20122     2.22163     1.39857
H      1.39472     2.43958     1.24948
N      0.18748    -1.50341    -0.13468
H     -0.04972    -0.51856    -0.12812
H      1.10963    -1.58965     0.27320
H     -0.45473    -1.93241     0.51700
N      2.92499     0.72269     0.34924
H      2.64648     0.04669     1.05395
H      2.44518     0.45701    -0.50042
H      3.91608     0.61508     0.18121
N      1.87204    -1.38226     2.83902
H      1.99023    -2.35145     3.11017
H      2.19983    -0.82464     3.61922
H      0.87145    -1.19942     2.76589
N     -0.56322     0.60882    -3.59913
H      0.08393     1.23331    -4.06671
H     -0.13454    -0.31479    -3.54649
H     -1.37394     0.52837    -4.20200
N      0.50182    -2.15843    -3.08929
H     -0.10323    -2.93081    -3.34111
H      0.34287    -1.95396    -2.10263
H      1.45656    -2.48318    -3.18480
N     -1.10938    -0.39699     2.95189
H     -1.74068    -0.74652     3.66453
H     -1.61244    -0.42315     2.05574
H     -0.96721     0.58489     3.17118
N     -2.64586    -0.45942     0.42878
H     -3.64696    -0.33131     0.52585
H     -2.26127     0.37122    -0.04833
H     -2.52109    -1.22261    -0.22769
