 16
-226.4043219153317
N      0.90778     0.29965     1.02982
H      1.24943     0.09303     1.95986
H      0.98868    -0.55244     0.47815
H      1.53763     0.98996     0.64106
N     -1.93616    -0.78552     0.85803
H     -1.07959    -0.23736     0.93359
H     -2.69367    -0.15448     0.62818
H     -2.13214    -1.15814     1.77926
N      0.98671     2.81527    -1.06335
H      0.47982     3.67427    -0.89506
H      1.07992     2.70139    -2.06455
H      0.40319     2.05682    -0.73421
N      0.25701    -2.14617    -0.90778
H     -0.60470    -1.87023    -0.44253
H      0.13964    -1.96365    -1.89691
H      0.35787    -3.14745    -0.80163
