 20
-283.0064699888916
N      0.02087     2.74930     0.98585
H     -0.88266     2.29636     0.87395
H      0.16269     2.87375     1.98126
H     -0.06543     3.67709     0.58826
N      0.38861    -3.85052     0.15346
H      0.77777    -4.64511    -0.33592
H      1.00097    -3.06511    -0.02495
H      0.43528    -4.03726     1.14604
N      2.40086     0.75203    -0.40657
H      2.87066     1.35412    -1.07021
H      1.59342     1.26664    -0.06172
H      3.02377     0.63272     0.38164
N     -2.53000     0.99136     0.42048
H     -1.75726     0.52667    -0.05735
H     -2.89257     0.32806     1.09595
H     -3.25461     1.13835    -0.27244
N     -0.40797    -0.73204    -1.14196
H     -0.53547    -1.66750    -0.77359
H      0.55898    -0.44697    -1.00132
H     -0.57111    -0.78353    -2.13960
