 28
-396.2193233942629
N      2.39504    -0.63450    -1.74222
H      2.75978    -1.53967    -1.46927
H      1.38240    -0.67764    -1.62086
H      2.57433    -0.54311    -2.73487
N      3.39026     2.07393     0.06622
H      3.07501     1.25902    -0.45434
H      3.28063     2.87352    -0.54380
H      4.38105     1.95428     0.23225
N      0.80672     0.55188     1.73396
H      1.21805    -0.06215     2.42385
H      1.51660     1.24436     1.52082
H      0.70388    -0.01025     0.89655
N     -0.60942    -0.82958    -1.54222
H     -1.33214    -0.20213    -1.20578
H     -0.77487    -0.94421    -2.53666
H     -0.80960    -1.73032    -1.11382
N     -2.64063    -0.17657     1.72994
H     -1.77808     0.04462     2.21279
H     -2.74965     0.53481     1.01485
H     -3.39382    -0.05414     2.39111
N     -1.41744     2.15223    -0.29465
H     -0.74601     1.81989    -0.97463
H     -1.54218     3.14195    -0.45548
H     -0.94549     2.04991     0.59561
N     -1.86224    -2.99442     0.23449
H     -1.47073    -3.55625     0.98126
H     -2.10909    -2.09500     0.64518
H     -2.72980    -3.43378    -0.05134
