 24
-339.6080631480215
N      0.32805    -0.20531    -0.98088
H      0.99553    -0.89425    -1.30748
H     -0.00169     0.31322    -1.78688
H      0.81506     0.44831    -0.37907
N      2.06084     3.21753     2.15353
H      3.01152     3.22997     2.50038
H      1.50306     3.78807     2.77618
H      1.72203     2.26264     2.23379
N      0.69628    -2.97184    -2.63840
H     -0.08589    -2.36586    -2.42983
H      0.83711    -2.93855    -3.63976
H      0.41733    -3.91336    -2.39504
N     -2.04028     1.42402    -2.64144
H     -2.96326     1.12537    -2.92554
H     -1.94177     1.19831    -1.66081
H     -1.99941     2.43165    -2.71934
N     -1.89504    -1.45132     1.29849
H     -1.29297    -1.18807     0.52412
H     -1.80718    -2.45223     1.41721
H     -2.84864    -1.26507     1.01605
N      1.02397     0.05698     2.35411
H      0.03175    -0.02475     2.54098
H      1.18599    -0.50891     1.53104
H      1.50801    -0.39426     3.11935
