 12
-169.79739657976899
N     -1.36264     2.69125     0.00234
H     -1.24079     1.68106     0.00125
H     -0.80758     3.06336    -0.75872
H     -0.96331     3.04236     0.86431
N      2.28048    -1.93508    -0.00100
H      2.48363    -2.45849    -0.84192
H      2.94934    -1.17869     0.05071
H      2.45825    -2.54727     0.78384
N     -1.05922    -0.65732    -0.00557
H     -1.49583    -1.04366    -0.83129
H     -0.09410    -0.96530    -0.00028
H     -1.51274    -1.06838     0.79869
