 20
-283.0082227100058
N      2.21701    -0.53499    -1.09523
H      2.64057     0.29750    -1.48428
H      2.67180    -1.32790    -1.52815
H      1.25242    -0.53766    -1.41413
N     -1.02179    -0.24601    -2.32526
H     -1.75862    -0.87941    -2.60409
H     -1.38731     0.33265    -1.57336
H     -0.85248     0.37187    -3.10900
N      0.97508     1.08125     1.99963
H      1.54268     1.38666     2.77718
H      0.53697     0.20676     2.26734
H      1.59941     0.84956     1.23801
N     -0.24943    -1.85229     1.07671
H      0.71448    -1.70106     0.80726
H     -0.38890    -2.85191     1.12174
H     -0.80164    -1.50702     0.30280
N     -1.98562     1.62915     0.39985
H     -1.06010     1.57558     0.81905
H     -2.61207     1.18075     1.05700
H     -2.23672     2.60858     0.37533
