 36
-509.42821992900457
N     -1.92930     0.82807    -1.05479
H     -1.52811     1.61294    -0.55074
H     -2.76781     1.15564    -1.51448
H     -1.27342     0.58314    -1.78775
N      0.86695    -1.91674    -0.03477
H      0.94208    -1.19091    -0.73946
H      1.16841    -2.77394    -0.48598
H     -0.12911    -2.02720     0.15525
N      1.36646     1.50177    -0.57013
H      0.64729     2.05798    -0.11122
H      1.62316     0.76658     0.07960
H      2.18003     2.10033    -0.65022
N      2.07816    -1.01859     2.49729
H      1.64385    -1.36207     1.63176
H      3.08317    -1.04198     2.35525
H      1.88343    -1.71500     3.21014
N     -2.29305    -1.66825     0.54313
H     -2.18339    -0.78786     0.03263
H     -3.27178    -1.92546     0.52934
H     -2.05682    -1.45840     1.50737
N     -0.97987     2.79930     1.32105
H     -0.32398     2.36705     1.98371
H     -1.19917     3.72706     1.66196
H     -1.83596     2.26038     1.36970
N      0.97804     0.35460    -3.27076
H      1.07587     0.82647    -2.36828
H      1.89626     0.01062    -3.53154
H      0.73492     1.05416    -3.96230
N      0.77039     1.63703     3.37783
H      0.18448     1.43236     4.17890
H      1.51002     2.25021     3.70051
H      1.20138     0.75958     3.08148
N     -0.80116    -2.64108    -2.84737
H     -1.30804    -2.57199    -1.97422
H     -0.27845    -1.77490    -2.93418
H     -1.49620    -2.63536    -3.58104
