 36
-509.4259089125248
N     -4.26729    -0.48169    -2.21409
H     -3.47085     0.14320    -2.10018
H     -4.29002    -0.75833    -3.18833
H     -5.09259     0.08108    -2.04767
N      0.82109    -1.75818     2.81569
H      0.08517    -1.33696     2.24526
H      0.51846    -2.69752     3.05005
H      0.86456    -1.23815     3.68585
N      2.72902     2.82656    -1.03497
H      2.43653     3.74542    -0.72438
H      3.26717     2.40295    -0.27542
H      3.35139     2.95729    -1.82373
N     -3.59251    -2.88286     0.09183
H     -4.50982    -3.11266     0.45428
H     -3.72175    -2.11642    -0.56554
H     -3.27708    -3.67884    -0.44888
N     -2.06144     1.67006    -1.97909
H     -2.00618     1.99163    -2.94079
H     -2.30582     2.49162    -1.43431
H     -1.10652     1.39214    -1.71011
N     -1.49222    -0.59795     1.28687
H     -1.48216    -0.00906     0.46213
H     -2.02032    -1.43089     1.03765
H     -2.04856    -0.11116     1.98058
N      0.58139     0.71455    -1.19369
H      0.87123     0.04680    -1.89920
H      1.28130     1.45729    -1.14464
H      0.58216     0.21228    -0.31221
N      4.21905     1.57531     1.34378
H      3.96447     0.58595     1.36047
H      5.22733     1.63524     1.43265
H      3.83012     1.98902     2.18492
N      3.26914    -1.24715     1.00922
H      3.63358    -2.12891     0.67252
H      2.46591    -1.43514     1.60923
H      2.91668    -0.74650     0.20098
