 24
-339.61350682183047
N      0.55201    -0.82027    -1.62089
H     -0.23999    -1.06452    -1.04031
H      0.33200    -1.10918    -2.56279
H      1.30866    -1.41350    -1.29545
N     -0.48057    -0.99071     1.65415
H     -1.48502    -0.89354     1.55345
H     -0.26303    -0.68337     2.59303
H     -0.06311    -0.30989     1.02806
N      2.10355    -2.99779     0.52855
H      2.89923    -2.94611     1.15131
H      1.31113    -2.59806     1.02185
H      1.89267    -3.97702     0.38668
N     -1.06052     2.29745    -0.83091
H     -1.39859     3.02969    -1.43825
H     -0.25331     2.66684    -0.34788
H     -0.70027     1.56675    -1.42960
N     -3.47242     0.57111     0.95360
H     -2.77799     1.11045     0.44415
H     -4.19876     0.32475     0.29434
H     -3.88193     1.19312     1.63806
N      2.38092     1.88834    -0.42632
H      1.89190     1.10788    -0.85473
H      3.00689     2.25603    -1.13064
H      2.95753     1.48185     0.30003
