 24
-339.6081285617755
N     -1.92643    -0.24132     0.26335
H     -1.72361    -1.23441     0.25219
H     -1.09307     0.23279     0.58699
H     -2.64575    -0.07736     0.95635
N      2.64178     1.80185     0.21285
H      2.85350     0.81261     0.17937
H      1.71151     1.92759    -0.18384
H      3.29697     2.26778    -0.40274
N     -0.17483    -3.97041    -2.42741
H      0.53551    -3.47384    -2.94836
H     -0.71681    -4.51581    -3.08411
H     -0.79461    -3.27126    -2.03896
N     -0.35933     2.38260    -0.88257
H     -1.05500     1.64683    -0.92479
H     -0.57508     2.96087    -0.07705
H     -0.48315     2.95989    -1.70376
N     -1.03507    -3.34357     0.68378
H     -0.47085    -3.86618     0.02389
H     -0.40382    -2.97548     1.38505
H     -1.64810    -4.00040     1.15024
N      0.73264     3.44062     2.22834
H      1.44526     2.92726     1.71337
H      1.06719     4.39114     2.32684
H      0.69172     3.04640     3.16048
