 36
-509.42864522865347
N     -0.11500     0.29423    -3.85198
H     -0.05898    -0.34944    -3.06564
H     -0.89664     0.01058    -4.42969
H      0.72597     0.14909    -4.39757
N     -0.46023     2.14752     1.55888
H     -1.44149     1.95843     1.40216
H     -0.38444     3.10100     1.88731
H     -0.00300     2.08907     0.63957
N     -2.31285     0.29806    -0.60921
H     -3.14333     0.40013    -1.17410
H     -1.71625     1.08976    -0.81291
H     -1.80847    -0.50069    -0.97234
N      0.64132    -1.52725    -1.30655
H      1.39405    -2.10080    -1.66252
H      1.06933    -0.76294    -0.79619
H      0.14652    -2.08535    -0.62010
N     -2.23061    -0.63430     2.58046
H     -1.48537    -0.00570     2.85316
H     -2.44733    -0.40557     1.61335
H     -3.04324    -0.42048     3.14241
N      0.72020     2.29119    -1.15540
H      1.69125     2.01300    -1.01601
H      0.42062     1.88961    -2.04104
H      0.71790     3.29607    -1.28741
N      3.43565     0.69036    -0.25809
H      2.77033     0.40022     0.46691
H      3.71464    -0.14736    -0.75353
H      4.26107     1.04920     0.20401
N      1.50605    -0.24090     1.79415
H      0.87023     0.53430     1.97162
H      0.93346    -1.06174     1.63694
H      2.02651    -0.41327     2.64443
N     -1.04106    -3.14932     1.26223
H     -1.79797    -3.65630     0.81713
H     -0.61049    -3.79919     1.90818
H     -1.47491    -2.41739     1.82056
