 24
-339.61012731945317
N      1.66286    -1.95687     3.37611
H      1.36191    -2.66794     4.02833
H      1.99219    -1.16361     3.90912
H      0.84630    -1.65419     2.86280
N     -1.97058     2.44590    -0.19994
H     -1.47770     2.12953    -1.02609
H     -2.23431     1.60217     0.30144
H     -2.81866     2.90561    -0.50531
N      1.53912     1.08201    -3.55354
H      0.71533     1.12878    -4.13906
H      1.24191     1.16279    -2.58555
H      2.10504     1.89378    -3.76452
N      0.95152     1.16155    -0.27962
H      0.40911     1.96565     0.01551
H      0.49559     0.34825     0.11971
H      1.85334     1.23129     0.17875
N     -2.35228    -0.83181     0.72216
H     -2.87156    -1.19543     1.50784
H     -2.85393    -1.08658    -0.11845
H     -1.46290    -1.31479     0.68703
N      0.89079    -2.09084     0.17337
H      1.58991    -2.20469     0.89838
H      0.78600    -2.98956    -0.27962
H      1.27434    -1.46271    -0.52177
