 28
-396.22083085054885
N      2.21741     1.05144     0.67629
H      1.51162     0.37830     0.94697
H      1.71336     1.86338     0.32968
H      2.70232     1.33156     1.51806
N      1.02103     0.08749    -2.46387
H      1.75276     0.31751    -1.80279
H      1.41672     0.19654    -3.38779
H      0.31977     0.81018    -2.35692
N      1.75860    -2.12384    -0.14063
H      2.47032    -1.44766     0.11038
H      2.22709    -2.98386    -0.39431
H      1.30334    -1.76465    -0.97591
N     -2.02423     0.71050    -1.20850
H     -2.86173     0.59608    -1.76052
H     -1.38771    -0.03365    -1.46387
H     -2.26880     0.53996    -0.23773
N     -2.32518    -0.06438     2.14131
H     -3.14041    -0.28695     2.69701
H     -1.79911    -0.92495     2.01477
H     -1.74205     0.54991     2.69544
N      0.01775     3.39586    -0.55718
H     -0.35352     3.97934     0.18103
H      0.11191     3.98224    -1.37574
H     -0.69590     2.70324    -0.76421
N     -0.60109    -2.93543     1.62452
H     -0.23748    -3.52937     2.36041
H     -1.12599    -3.53500     0.99816
H      0.19682    -2.59372     1.09327
