 36
-509.4292650790966
N      1.38303     2.47839    -0.29856
H      2.18800     1.95120    -0.62390
H      0.66554     2.30056    -0.99294
H      1.63067     3.45544    -0.37142
N     -0.83721    -1.64669    -0.37181
H     -1.59492    -2.30270    -0.51067
H     -0.65616    -1.62958     0.62530
H     -1.21857    -0.73144    -0.58214
N      1.53435    -2.40952    -1.94366
H      2.09953    -3.06352    -1.41397
H      1.21020    -2.91901    -2.75837
H      0.71007    -2.18949    -1.37903
N      1.40666    -0.23205     1.56590
H      1.28877     0.73492     1.26978
H      2.33373    -0.29467     1.97101
H      1.43367    -0.76923     0.70612
N     -2.01728     1.54816     0.07692
H     -1.13722     1.84328     0.48201
H     -2.49619     1.01360     0.79478
H     -2.56892     2.38385    -0.06344
N     -0.51460    -1.17775     3.60532
H     -0.18997    -2.09990     3.87248
H      0.12641    -0.82562     2.89232
H     -0.38136    -0.58272     4.41568
N     -0.34085     0.79557    -2.84125
H     -0.66431     0.73933    -3.79574
H      0.03408    -0.11339    -2.60291
H     -1.15327     0.93589    -2.25380
N     -3.50993     0.03708     2.82174
H     -2.61751    -0.39168     3.05229
H     -4.20243    -0.70036     2.80777
H     -3.74370     0.65822     3.58597
N      3.16077     0.64640    -2.52353
H      2.81665    -0.29443    -2.36174
H      2.38785     1.14856    -2.94255
H      3.89098     0.59214    -3.21777
