 36
-509.4289023635056
N     -1.46537     3.32146    -1.40502
H     -1.64606     2.54053    -0.76521
H     -1.68526     4.17346    -0.90170
H     -2.13912     3.25245    -2.15902
N      1.44604     2.37322    -0.53889
H      1.59792     1.66319    -1.24635
H      0.63406     2.90830    -0.83373
H      2.24881     2.98756    -0.56045
N      1.83307    -1.00821    -0.27265
H      2.04758    -0.08435     0.08916
H      0.82052    -1.04674    -0.31125
H      2.12776    -0.99570    -1.23939
N      2.71606    -1.80937     2.68408
H      2.77358    -2.75560     3.03697
H      2.70792    -1.85386     1.66995
H      3.57008    -1.33879     2.95588
N     -0.92947    -2.23513     1.30339
H     -1.33653    -2.90871     1.93736
H      0.06751    -2.41651     1.27242
H     -1.02323    -1.32810     1.74530
N     -1.86534    -2.33546    -1.50967
H     -1.60836    -2.36484    -0.52129
H     -2.87146    -2.43382    -1.57719
H     -1.47168    -3.16500    -1.94185
N      0.20666     0.12376    -2.86151
H     -0.11976     0.99878    -2.46977
H     -0.43445    -0.58787    -2.52476
H      0.08200     0.18337    -3.86142
N      0.25301     0.70478     2.29411
H      0.49304     1.22579     1.45528
H      0.92688    -0.04652     2.39159
H      0.38988     1.32730     3.07677
N     -2.11284     1.00016     0.34980
H     -1.51807     0.91614     1.17097
H     -3.06413     1.12950     0.66707
H     -2.08524     0.10853    -0.12995
