 28
-396.2145573407966
N      1.49202    -3.84599    -1.38275
H      0.64188    -3.90682    -0.83038
H      1.43251    -4.55957    -2.09892
H      2.26424    -4.09829    -0.77826
N      2.31451     1.89936    -0.51010
H      2.59382     2.02519     0.45470
H      3.09756     2.17701    -1.08657
H      1.56987     2.57083    -0.67322
N      0.31534    -0.72326    -1.15167
H      0.92620    -1.44940    -1.51543
H     -0.20180    -0.33405    -1.93035
H      0.90002     0.03012    -0.80021
N     -1.30967    -3.53488     0.02771
H     -1.04596    -2.70644    -0.49011
H     -2.26218    -3.76117    -0.21833
H     -1.29032    -3.27716     1.00345
N     -0.84622    -0.45927     1.57214
H     -1.57174    -1.14308     1.75116
H     -0.48687    -0.62580     0.62740
H     -0.09472    -0.65408     2.22622
N     -0.36831     4.03204    -0.79780
H     -0.36343     5.00250    -0.51217
H     -1.03939     3.94382    -1.54909
H     -0.73495     3.49820    -0.01410
N     -1.57546     2.57562     2.07533
H     -1.05134     2.80431     2.91149
H     -2.55713     2.61878     2.32242
H     -1.36502     1.60451     1.85694
