 28
-396.2216225774681
N     -0.32402     2.31406    -1.62719
H      0.38933     1.61905    -1.81808
H     -0.10658     3.13191    -2.17643
H     -1.18536     1.92560    -1.99368
N      2.31407     1.19227     0.49045
H      3.13790     1.77247     0.42650
H      2.32125     0.56490    -0.30544
H      1.51652     1.79751     0.34974
N     -0.72953    -2.11641     0.80319
H      0.09859    -2.09628     1.38874
H     -1.22717    -1.25546     0.99697
H     -1.30482    -2.87577     1.13853
N     -1.64091     1.32196     1.36755
H     -0.90303     1.03795     1.99864
H     -1.17466     1.74700     0.57345
H     -2.17160     2.04375     1.83513
N     -2.55100    -0.37726    -1.65627
H     -2.77312     0.08311    -0.78271
H     -3.42160    -0.66756    -2.07750
H     -2.05781    -1.22029    -1.39164
N      0.83254    -0.78948    -2.01784
H     -0.07154    -0.42417    -2.29420
H      1.11898    -1.44177    -2.73255
H      0.64789    -1.32945    -1.17975
N      2.13587    -1.42621     2.71114
H      2.16747    -1.13263     3.67801
H      2.20551    -0.59263     2.13689
H      2.96361    -1.97888     2.53274
