 36
-509.4297789813078
N      0.98147    -1.47465    -1.95805
H      0.71346    -2.07925    -1.18973
H      1.43602    -2.05639    -2.64932
H      1.67360    -0.81894    -1.61062
N     -1.99727     1.66696     2.31529
H     -2.27950     2.56122     2.69989
H     -2.39087     0.96316     2.93082
H     -0.97502     1.59279     2.39701
N      1.91003    -1.24311     1.44437
H      2.30058    -0.70751     0.67762
H      2.60641    -1.92721     1.70343
H      1.10195    -1.74969     1.08916
N      2.79502     1.34260    -1.15778
H      3.40687     1.92041    -0.59482
H      2.95573     1.62701    -2.11775
H      1.82775     1.59945    -0.93649
N      0.92580     1.43167     2.55714
H      1.38093     1.74995     3.40431
H      1.16031     0.44707     2.42994
H      1.37901     1.90701     1.78387
N     -0.07181     1.82392    -0.44745
H     -0.25617     0.96473     0.06234
H     -0.49585     2.55325     0.10888
H     -0.58929     1.75125    -1.31253
N     -1.30982    -0.07957    -3.16946
H     -1.92754    -0.81787    -3.48916
H     -0.96418     0.37737    -4.00581
H     -0.51300    -0.54426    -2.71780
N     -2.41507    -0.48685    -0.16799
H     -2.16928    -0.15569    -1.09956
H     -3.38923    -0.76231    -0.19971
H     -2.36216     0.30594     0.46856
N     -0.81891    -2.83857     0.66576
H     -1.24135    -3.61460     0.16915
H     -1.00973    -2.99224     1.65034
H     -1.32594    -1.98947     0.39128
