 12
-169.7973783888655
N     -1.21022     2.60466     0.00670
H     -1.08018     2.91844     0.96078
H     -1.16619     1.58832     0.01269
H     -0.41756     2.93694    -0.52887
N      2.24008    -1.76584    -0.00725
H      2.42460    -2.74775    -0.16232
H      2.71446    -1.25095    -0.73691
H      2.67280    -1.51195     0.87058
N     -1.15542    -0.75946    -0.02553
H     -1.64443    -1.19319     0.74491
H     -1.57076    -1.10065    -0.88156
H     -0.19698    -1.08882    -0.00205
