 24
-339.61038478504895
N     -0.80547    -1.90589    -0.35568
H      0.01390    -1.74332    -0.93520
H     -0.55558    -2.63632     0.29865
H     -1.52290    -2.29410    -0.95474
N      1.30444     3.66969     1.44214
H      0.29974     3.55724     1.41953
H      1.53380     4.07110     2.34098
H      1.54459     4.35332     0.73744
N      2.34854     0.29517     1.02627
H      2.12214     1.27064     1.17701
H      1.50306    -0.16101     0.70804
H      2.57551    -0.10493     1.92497
N     -0.96930     1.24970     0.83923
H     -0.24411     1.69707     0.29627
H     -0.53295     0.97346     1.70953
H     -1.19840     0.39040     0.35331
N     -4.08854    -2.18579    -0.90649
H     -4.59647    -1.57259    -1.53118
H     -3.48520    -1.59828    -0.34548
H     -4.75855    -2.60894    -0.27697
N      2.19266    -1.04983    -1.87358
H      2.87474    -1.75609    -2.11853
H      2.14180    -0.40545    -2.65248
H      2.56027    -0.53404    -1.07969
