 36
-509.4307651855226
N      0.03283     1.58962    -2.72157
H      0.51734     2.08745    -3.45421
H      0.73184     1.13440    -2.15150
H     -0.50973     0.85570    -3.16612
N      3.01417     1.36405     3.04012
H      2.81366     1.69609     3.97491
H      3.96281     1.00958     3.04334
H      2.40554     0.56615     2.87188
N      1.15590     1.37537     0.33030
H      0.32705     1.09367     0.83653
H      0.90055     2.17885    -0.22746
H      1.84328     1.67194     1.01585
N      2.05090    -1.19690    -0.88963
H      3.06240    -1.21110    -0.95219
H      1.78506    -0.32496    -0.41835
H      1.70783    -1.12073    -1.84059
N     -1.82095    -1.23602    -3.66724
H     -1.38302    -1.86479    -4.32713
H     -1.69874    -1.63888    -2.74392
H     -2.81098    -1.23494    -3.87149
N     -1.80565     0.59377     2.40774
H     -2.66357     0.51033     2.93920
H     -1.30156     1.38456     2.79678
H     -2.04553     0.82972     1.44166
N     -2.34035     1.06562    -0.43024
H     -2.48886     0.18526    -0.91381
H     -3.16307     1.63454    -0.59040
H     -1.57518     1.51917    -0.91959
N     -1.24044    -2.14231    -0.42140
H     -0.23850    -2.28298    -0.46080
H     -1.37597    -1.35766     0.20387
H     -1.62892    -2.94798     0.04585
N      1.04780    -1.26380     2.47825
H      1.28838    -1.59755     1.55319
H      1.07293    -2.06017     3.09850
H      0.08248    -0.95150     2.43445
