 12
-169.7973445060109
N     -1.06483     2.57312    -0.01037
H     -1.95118     3.03754     0.13483
H     -0.43034     2.90154     0.70521
H     -0.70145     2.88581    -0.90088
N      2.20110    -1.73288     0.00206
H      1.22682    -1.44052    -0.00260
H      2.37193    -2.19054     0.88921
H      2.76778    -0.89378    -0.01440
N     -1.08580    -0.94735    -0.04547
H     -1.17120     0.06283    -0.02758
H     -1.66507    -1.31540     0.69554
H     -1.47041    -1.26847    -0.92330
