 28
-396.22027501738637
N      1.61564     0.16268     1.89434
H      0.71340    -0.00572     2.31870
H      2.22149     0.51108     2.62362
H      1.46672     0.92637     1.24218
N      1.07914    -0.40691    -1.93793
H      1.31000    -0.26561    -2.91176
H      1.48850     0.36019    -1.41673
H      1.57186    -1.24530    -1.64313
N      2.82034    -2.49450     0.06782
H      2.49765    -3.35384     0.49231
H      3.82832    -2.47450     0.14758
H      2.46257    -1.73089     0.63630
N     -1.60121    -0.96309     1.09876
H     -0.59574    -1.01559     0.98782
H     -1.86720    -1.76496     1.65548
H     -1.97535    -1.11432     0.16465
N     -2.54436     2.34117     1.25919
H     -3.39013     2.48289     0.72291
H     -2.34133     1.34666     1.22378
H     -2.75369     2.56430     2.22283
N      0.51629     2.58451    -0.31605
H     -0.31116     2.71839     0.25687
H      0.83042     3.50013    -0.60342
H      0.19369     2.09536    -1.14040
N     -1.91673    -1.29582    -2.03368
H     -0.97456    -0.95073    -1.85589
H     -1.81478    -2.15557    -2.55998
H     -2.37267    -0.62330    -2.63937
