 24
-339.6127253112167
N     -0.49670    -2.88329     0.59183
H      0.02284    -3.15296     1.42035
H     -0.54071    -3.70165    -0.00565
H      0.05756    -2.17616     0.10045
N      0.38661     1.92952     0.72500
H      0.04673     2.64378     1.35663
H     -0.12693     2.03045    -0.14599
H      0.08609     1.04056     1.11079
N      1.17988    -0.92067    -0.92539
H      1.51682    -1.34534    -1.78078
H      0.68662    -0.07745    -1.19677
H      2.00294    -0.62447    -0.40518
N     -1.69612     1.56819    -1.57536
H     -1.94092     1.19548    -2.48482
H     -1.95534     0.86927    -0.87853
H     -2.29836     2.36871    -1.41957
N     -2.67567    -0.62678     0.52558
H     -2.05635    -1.43086     0.61240
H     -3.04658    -0.43555     1.44885
H     -3.46344    -0.92640    -0.03853
N      3.51434     0.92214     0.66828
H      3.74881     0.86559     1.65161
H      4.17002     1.56306     0.23885
H      2.59442     1.35425     0.61260
