 24
-339.60877788515717
N      2.39350    -1.38551    -0.87570
H      2.92430    -2.05699    -0.33744
H      3.04545    -0.85457    -1.43657
H      1.98068    -0.73570    -0.22238
N      0.26268     2.69611     1.00186
H     -0.18797     2.04984     1.63641
H     -0.10716     3.61336     1.20924
H     -0.05050     2.44771     0.07014
N     -0.86114    -2.39847    -1.54711
H     -1.03275    -2.59128    -2.52478
H      0.11850    -2.14700    -1.46189
H     -0.97826    -3.27447    -1.05295
N     -1.14059     1.37279    -1.97672
H     -1.96998     1.66657    -2.47284
H     -0.35819     1.48127    -2.60817
H     -1.22706     0.37948    -1.81023
N     -1.86200    -0.19653     1.01633
H     -1.82463    -0.96658     0.35997
H     -2.70491    -0.28570     1.56384
H     -1.94947     0.64550     0.46344
N      1.25923    -0.16668     2.46659
H      0.40278    -0.48889     2.02944
H      1.47341     0.74979     2.09159
H      2.00305    -0.80062     2.21650
