 28
-396.2218069487062
N      0.43812    -1.76859     2.27156
H     -0.41704    -1.23054     2.31060
H      0.65249    -2.05736     3.21394
H      1.15514    -1.11076     1.98724
N     -0.21458     0.00524    -2.54703
H     -0.22534    -0.33039    -3.49910
H     -0.93533    -0.48811    -2.02976
H      0.66832    -0.26825    -2.13223
N      1.76323    -2.20096    -0.71156
H      1.38865    -2.38410     0.21491
H      0.98725    -2.31415    -1.35148
H      2.43393    -2.92784    -0.92016
N     -0.64573     3.14130    -1.28740
H     -0.57428     2.24375    -1.75913
H     -1.52815     3.54893    -1.56737
H      0.08560     3.73244    -1.66141
N     -2.03485    -1.46830    -0.10408
H     -2.04456    -0.55723     0.34275
H     -2.93317    -1.89603     0.06507
H     -1.33995    -2.01139     0.39475
N     -1.26283     1.35549     1.73424
H     -1.34196     2.04426     0.99569
H     -1.63253     1.77227     2.57563
H     -0.26863     1.21372     1.87686
N      1.87182     0.96815     0.71831
H      1.11986     1.47847     0.27370
H      2.64678     1.60637     0.82481
H      2.15494     0.25045     0.06228
