 36
-509.42725125420594
N     -1.27868     2.18843    -3.08908
H     -0.32576     2.06195    -2.74409
H     -1.56683     1.31168    -3.50763
H     -1.24405     2.88061    -3.82740
N     -1.33329     2.30386    -0.05143
H     -0.32227     2.24097    -0.05774
H     -1.61142     2.37123    -1.02931
H     -1.55131     3.19788     0.37825
N      2.11724     0.98925     0.59742
H      1.46676     0.23531     0.79022
H      3.00567     0.54210     0.37961
H      2.25872     1.48625     1.46840
N      1.68233    -2.81044     1.51875
H      1.56052    -2.78422     2.52519
H      0.88343    -2.32257     1.11359
H      1.58997    -3.78372     1.24986
N     -3.43768     0.70894     1.28425
H     -2.67458     1.19177     0.79490
H     -4.29489     0.95099     0.79569
H     -3.51024     1.12819     2.20696
N     -0.65298    -1.40437     0.11665
H     -1.40090    -1.94180     0.55137
H     -1.00235    -0.46217    -0.00404
H     -0.53473    -1.77077    -0.82182
N      1.65654     1.86438    -2.18137
H      2.24647     2.66754    -2.37946
H      1.81202     1.60015    -1.20291
H      2.03038     1.10015    -2.73833
N      4.45004    -1.39617     0.16671
H      4.60947    -1.85705    -0.71984
H      5.20239    -1.66880     0.78665
H      3.59410    -1.78970     0.55194
N     -3.24774    -2.39801     1.63995
H     -3.26971    -1.38832     1.49640
H     -4.15294    -2.76025     1.36461
H     -3.14692    -2.55352     2.63610
