 36
-509.42869833139196
N     -0.92100     0.45906    -1.32093
H     -0.41805     1.28436    -1.03097
H     -1.88981     0.59119    -1.07607
H     -0.57445    -0.30229    -0.75586
N     -0.30553     2.33523     1.44713
H     -0.15262     1.34425     1.60661
H      0.51567     2.66930     0.95118
H     -0.31363     2.78327     2.35327
N      2.43706     2.69215    -0.53970
H      2.40752     1.87432    -1.14919
H      2.38236     3.50887    -1.13770
H      3.35892     2.71152    -0.11967
N     -1.18661    -2.80804    -0.76831
H     -1.64373    -3.70216    -0.90369
H     -1.66045    -2.32654    -0.00019
H     -1.36058    -2.26563    -1.60727
N     -3.29682     2.18428     0.57966
H     -3.66561     2.82129    -0.11797
H     -3.72724     2.43598     1.46075
H     -2.30154     2.37615     0.67958
N     -2.04570    -1.13113     1.51567
H     -2.35204    -1.36626     2.44609
H     -1.03331    -1.06410     1.53891
H     -2.41499    -0.21878     1.28515
N      1.35859    -0.60175     1.25420
H      1.69883    -1.42771     0.76952
H      1.85558    -0.54174     2.13384
H      1.63859     0.20867     0.71320
N      1.98394     0.12595    -2.04639
H      2.15507    -0.71401    -1.50704
H      0.97400     0.22642    -2.10654
H      2.32668    -0.06219    -2.97937
N      1.73490    -3.29619    -0.29398
H      0.73450    -3.08411    -0.37340
H      1.83124    -3.98631     0.44186
H      2.00349    -3.75743    -1.15424
