 36
-509.4310947164957
N      1.26182    -1.34181    -1.68775
H      1.68646    -1.84380    -2.45709
H      0.27310    -1.56331    -1.69629
H      1.34267    -0.35054    -1.89780
N      0.75576     2.64714     2.23949
H      1.40747     1.93622     1.88857
H      1.24303     3.53569     2.22872
H      0.58700     2.43142     3.21662
N      0.80916     1.85046    -1.54249
H     -0.04509     1.36274    -1.79015
H      0.73311     2.09156    -0.56309
H      0.81806     2.71472    -2.06287
N      2.20461    -2.24559     0.97363
H      2.98633    -2.88259     0.86976
H      1.41385    -2.79386     1.28988
H      1.94998    -1.89528     0.04117
N     -2.21558     0.44223    -2.55285
H     -2.18831    -0.46649    -2.09717
H     -3.09972     0.86048    -2.29303
H     -2.24252     0.28759    -3.55224
N      2.66418     0.73956     1.06685
H      3.60820     1.07331     1.22763
H      2.63637    -0.23718     1.35025
H      2.53780     0.73216     0.06198
N     -2.25122     1.68793     0.84750
H     -1.39297     2.01488     1.28464
H     -2.08784     1.73527    -0.14974
H     -2.97426     2.35802     1.06889
N     -0.92588    -1.34766     1.55211
H     -1.16577    -1.58011     2.50710
H      0.04642    -1.05820     1.54021
H     -1.46338    -0.51835     1.31760
N     -2.22180    -2.37943    -0.88174
H     -1.70837    -2.13373    -0.03216
H     -3.20768    -2.33894    -0.63913
H     -2.03012    -3.35287    -1.08957
