 28
-396.21651067633945
N      1.63400    -1.15103    -1.12841
H      2.35907    -1.83487    -1.31173
H      1.49263    -0.64541    -1.99571
H      2.02653    -0.47724    -0.46915
N     -0.01699     1.56084    -0.40185
H     -0.69098     2.04549     0.18399
H      0.14701     2.16245    -1.20005
H     -0.47101     0.72446    -0.74681
N      3.55604    -2.07510     1.41792
H      4.26656    -2.75151     1.17618
H      2.68269    -2.38573     1.01714
H      3.78808    -1.20134     0.96503
N     -3.00977     2.59118     0.83130
H     -3.52342     3.39183     0.48672
H     -3.18899     1.82647     0.18669
H     -3.42495     2.33089     1.71625
N     -1.15587    -1.85410    -0.18246
H     -1.28787    -1.35006     0.68934
H     -1.28486    -2.83703     0.03053
H     -0.18407    -1.70486    -0.45485
N      2.58995     1.01028     0.89622
H      2.51314     0.58944     1.81623
H      3.10742     1.87230     1.01105
H      1.64823     1.24548     0.57351
N     -3.58153    -0.04082    -1.34180
H     -2.80145    -0.66651    -1.15403
H     -4.42597    -0.55772    -1.13004
H     -3.59022     0.13761    -2.33807
