 24
-339.61238221975185
N     -0.07295    -2.20015     1.04698
H     -0.80733    -2.75913     0.62660
H      0.77375    -2.34660     0.49338
H      0.08511    -2.59860     1.96620
N      0.00191     1.36119     1.34602
H      0.20047     1.79934     2.23504
H     -0.98633     1.47730     1.16429
H      0.16983     0.36735     1.45403
N      2.37509    -2.27682    -0.58250
H      2.33425    -2.50209    -1.56817
H      2.33846    -1.25921    -0.50031
H      3.26992    -2.58580    -0.22472
N     -2.19106     2.81110    -0.84546
H     -1.18812     2.87405    -0.72295
H     -2.40835     1.81837    -0.86711
H     -2.41390     3.20049    -1.75268
N     -2.44203    -0.47708    -0.36471
H     -1.52502    -0.79413    -0.06660
H     -3.09746    -0.76140     0.35214
H     -2.67695    -0.98176    -1.21018
N      2.27436     0.85866    -0.47884
H      1.44969     1.14593     0.05168
H      3.07339     1.33098    -0.06945
H      2.16891     1.23027    -1.41777
