 36
-509.42932714866424
N      0.12303    -1.18765    -4.30425
H     -0.27561    -1.68728    -3.51319
H     -0.64998    -0.94640    -4.91162
H      0.70312    -1.84174    -4.81173
N     -2.26823     1.29354     3.33913
H     -1.98951     1.86341     4.12827
H     -3.19068     0.93118     3.54928
H     -1.63185     0.49660     3.32195
N      1.99584    -1.17322    -1.17894
H      1.97127    -0.91050    -2.15574
H      2.53449    -2.02643    -1.12707
H      1.04295    -1.41613    -0.94161
N      2.17846     0.30482     1.99666
H      2.50298     0.00740     1.08294
H      1.79029     1.23674     1.88209
H      2.98241     0.38596     2.60416
N     -0.25511    -1.20020     3.00370
H     -0.02327    -1.92268     3.67477
H     -0.58827    -1.67210     2.17036
H      0.61019    -0.73182     2.72512
N      0.29353     2.96485     1.13395
H     -0.54086     2.61825     1.59012
H      0.27621     3.97089     1.20799
H      0.18464     2.73654     0.15485
N      0.59864     1.65934    -2.33975
H      1.01431     2.42632    -2.84924
H      1.33507     1.23328    -1.78850
H      0.32306     0.95760    -3.01923
N     -1.01523    -0.07784     0.12407
H     -1.68288     0.28178     0.79422
H     -0.10044     0.04902     0.53701
H     -1.04248     0.51435    -0.69780
N     -1.66605    -2.43865    -1.67144
H     -2.59001    -2.24485    -2.03780
H     -1.70858    -3.35747    -1.24921
H     -1.50518    -1.75826    -0.93284
