 24
-339.61259176426046
N      0.96749    -1.96205     1.73452
H      0.27217    -1.22618     1.71860
H      0.83582    -2.48872     0.87927
H      0.75337    -2.57829     2.50651
N     -2.48853     1.79054     1.59446
H     -1.72715     1.19902     1.26568
H     -2.09331     2.46622     2.23645
H     -3.12405     1.20674     2.12384
N      1.15133    -2.02096    -1.77167
H      0.59311    -1.29473    -2.20290
H      1.96902    -1.55002    -1.39361
H      1.46533    -2.63519    -2.51087
N     -2.42803     2.06504    -1.56679
H     -3.25718     1.70905    -2.02682
H     -2.63819     2.12396    -0.57258
H     -2.28373     3.01072    -1.89943
N     -0.37190     0.29961    -0.05004
H     -0.40857    -0.66823    -0.34388
H     -0.90422     0.86043    -0.70993
H      0.60707     0.56129    -0.09852
N      3.52088    -0.42901     0.21278
H      4.34319    -1.01644     0.26492
H      3.80082     0.49669     0.50845
H      2.86635    -0.78135     0.90790
