 24
-339.6072172158848
N     -0.18455     0.28430     0.04371
H     -0.28973    -0.38582    -0.70705
H     -1.07322     0.74991     0.17960
H      0.48207     0.98332    -0.25814
N      4.00887     2.87594    -0.22811
H      4.51402     3.54255     0.34078
H      3.53535     2.23281     0.39992
H      4.69156     2.34371    -0.75183
N     -0.30601    -2.78586    -0.31003
H     -0.28387    -2.06936     0.40368
H     -1.11705    -3.36808    -0.14502
H      0.51440    -3.36361    -0.18663
N     -3.25942     2.02565     0.74899
H     -3.69319     2.44996    -0.06037
H     -3.94988     1.42337     1.17759
H     -3.06221     2.76932     1.40576
N     -2.70827    -3.38563    -2.25692
H     -2.55116    -3.89346    -3.11887
H     -3.40786    -2.67739    -2.44446
H     -1.84550    -2.90569    -2.02662
N      2.37080     0.77656     1.85475
H      2.12056     1.23897     2.72061
H      1.51232     0.41509     1.45192
H      2.94589    -0.02114     2.09774
