 28
-396.2177969753381
N      1.77465    -0.44075     1.74919
H      2.25195     0.40921     1.47646
H      0.77674    -0.23278     1.65457
H      1.97267    -0.58769     2.73170
N     -2.69845    -1.82910     0.20959
H     -1.70347    -1.93552     0.37804
H     -3.15784    -2.61218     0.65213
H     -2.81694    -1.93507    -0.78792
N      0.70825    -2.81891     0.07645
H      0.70945    -3.69641     0.58306
H      1.30164    -2.96183    -0.73330
H      1.18838    -2.13585     0.65715
N     -1.01955     0.64725     1.53568
H     -0.94986     1.54897     1.07422
H     -1.87078     0.19727     1.21802
H     -1.15091     0.85805     2.51721
N     -0.72919    -0.53123    -2.33504
H     -1.35282    -0.76075    -3.09529
H     -0.42770    -1.39069    -1.89783
H     -1.26053    -0.04065    -1.62937
N     -0.04666     3.69168     0.08555
H      0.51627     4.39543     0.54460
H      0.59063     3.02512    -0.33924
H     -0.54988     4.14362    -0.66659
N      1.90867     1.23316    -1.23608
H      1.28648     0.98010    -1.99645
H      2.84082     1.29364    -1.62025
H      1.90023     0.43133    -0.61503
