 40
-566.0298678813408
N     -1.72991    -3.04283    -0.86548
H     -2.07184    -2.72587    -1.76394
H     -0.95092    -2.42754    -0.62566
H     -1.35744    -3.97407    -1.00978
N     -2.79225    -2.24005     2.20447
H     -2.60775    -2.58476     1.26553
H     -2.18865    -2.76317     2.82548
H     -3.74302    -2.49375     2.43533
N      2.68219     0.49037    -2.51031
H      1.75725     0.90839    -2.64126
H      2.74185    -0.31557    -3.12508
H      3.35570     1.16083    -2.86618
N      0.85174     2.37804     0.35842
H      0.22554     2.17371     1.13013
H      1.66773     1.79584     0.50756
H      1.15572     3.33434     0.48265
N      3.69043    -0.06281     0.24115
H      3.27559     0.11126    -0.68048
H      4.22151     0.76138     0.50326
H      4.36512    -0.81141     0.13770
N     -1.87106     1.02800     1.76569
H     -1.74344     1.13184     0.76657
H     -2.27234     0.10919     1.92180
H     -2.53591     1.72311     2.06963
N      1.57373     0.25026     2.86648
H      2.08898     0.02386     2.02377
H      1.71824    -0.51095     3.51386
H      0.59181     0.23439     2.62510
N      0.00528     1.84826    -2.42625
H     -0.93437     1.46650    -2.37787
H      0.27464     2.08876    -1.46477
H     -0.05548     2.70716    -2.96051
N     -2.88392     0.20381    -1.41801
H     -3.58027    -0.10686    -2.08010
H     -2.49195    -0.62188    -0.98063
H     -3.38986     0.67956    -0.68540
N      0.29501    -0.97457    -0.18076
H      0.38171    -0.29467    -0.92387
H      1.22814    -1.29211     0.04538
H     -0.04572    -0.48000     0.63339
