 36
-509.42902889134547
N     -0.67615     0.48377    -1.32482
H     -1.67414     0.35117    -1.23913
H     -0.29659     0.46551    -0.38395
H     -0.51469     1.42088    -1.66788
N      2.01276     0.77279     0.75303
H      1.69063     1.42939     0.04836
H      2.95303     1.03149     1.01659
H      2.07862    -0.13974     0.31331
N      0.54631     3.37453    -0.25846
H      1.28037     3.52511     0.42383
H     -0.24719     2.99101     0.26774
H      0.28354     4.29087    -0.60294
N     -0.23030    -2.62494     0.16201
H     -0.44996    -3.61077     0.17995
H     -0.40194    -2.30120    -0.78197
H      0.77551    -2.55531     0.27414
N     -1.66700     2.32077     1.37994
H     -2.34756     1.76674     0.86934
H     -2.17257     3.03842     1.87867
H     -1.26393     1.69506     2.07257
N     -0.33284    -0.34552     2.87835
H      0.45044     0.14026     2.45177
H     -0.04322    -0.63873     3.80089
H     -0.44805    -1.18551     2.32171
N      0.51664    -1.39432    -3.28209
H      0.10166    -0.72013    -2.63301
H      1.14521    -0.86999    -3.88084
H     -0.21934    -1.74606    -3.88280
N     -3.16218    -0.63555     0.84756
H     -2.82031    -0.34227     1.75344
H     -4.07192    -1.05055     0.99054
H     -2.53226    -1.37529     0.56466
N      2.82652    -1.86852    -1.16514
H      2.06637    -1.93429    -1.84034
H      3.26864    -0.97124    -1.32225
H      3.51258    -2.57643    -1.39356
