 24
-339.61032668440566
N      1.52627    -1.60274     3.56884
H      1.07760    -2.40158     3.99690
H      2.49157    -1.59697     3.86919
H      1.08546    -0.77589     3.95008
N     -1.74629     2.12970     0.85265
H     -1.14164     2.12630     0.04114
H     -2.09786     1.18673     0.94580
H     -2.52570     2.74295     0.66289
N      0.45660    -0.02221    -3.01156
H      0.55090     0.85835    -2.52062
H      0.96839    -0.69368    -2.45268
H      0.93691     0.06850    -3.89499
N      1.25420     1.67152    -0.12069
H      0.75972     1.89143     0.73447
H      1.40542     0.66945    -0.10844
H      2.16326     2.10933    -0.06189
N     -2.32830    -0.67091    -1.18562
H     -3.05541    -1.31606    -1.46299
H     -2.74485     0.25005    -1.15129
H     -1.64845    -0.63181    -1.93900
N      0.84327    -1.81281     0.00198
H      1.10923    -1.69644     0.97165
H     -0.14591    -1.60459    -0.05975
H      0.95151    -2.79324    -0.21537
