 24
-339.6125942264636
N     -0.54778    -2.18886     1.08520
H     -1.33364    -2.48892     0.52093
H      0.07348    -1.71006     0.44507
H     -0.06364    -3.01587     1.40711
N      1.84311     2.00925     1.53961
H      2.36312     2.62962     2.14192
H      0.95298     2.45086     1.34871
H      1.59771     1.19236     2.08241
N     -1.35234     0.99890     1.88272
H     -1.20185     0.00586     2.03262
H     -1.93064     1.33930     2.63788
H     -1.90739     1.04941     1.03795
N     -0.50615     0.77235    -1.42619
H     -0.81121     1.62058    -1.88219
H     -0.35796     0.99343    -0.44892
H      0.40575     0.55590    -1.80796
N     -2.58737    -1.98272    -1.69195
H     -1.98697    -1.16308    -1.65904
H     -3.52845    -1.65502    -1.86767
H     -2.29958    -2.52391    -2.49699
N      3.02831     0.56850    -1.38667
H      3.53623     1.25381    -1.93039
H      2.74275     1.03073    -0.52677
H      3.68694    -0.15564    -1.12943
