 36
-509.4302990206521
N      1.07886     1.45815     1.42554
H      1.53419     0.56263     1.56392
H      1.14068     1.68445     0.43616
H      1.61876     2.15026     1.92698
N      0.64224     1.85493    -1.85112
H      0.22379     2.61596    -2.36778
H      1.31452     1.40991    -2.46163
H     -0.08921     1.15797    -1.67592
N     -2.52639     2.66034    -1.08566
H     -1.62471     2.73941    -0.63369
H     -2.38843     2.02803    -1.86063
H     -2.76856     3.56944    -1.44888
N     -1.16864    -1.72477     1.93891
H     -1.62651    -2.22632     2.69172
H     -1.57319    -0.78124     1.89002
H     -1.43294    -2.20493     1.08366
N     -2.01487     1.09331     1.82582
H     -1.00575     1.25402     1.82482
H     -2.41005     1.59602     1.03700
H     -2.39224     1.50737     2.66768
N     -1.26179    -0.23554    -1.09852
H     -0.66481    -0.32020    -0.28389
H     -2.20494    -0.13427    -0.75291
H     -1.17265    -1.08643    -1.64075
N      0.53557    -2.70923    -2.55155
H      1.19474    -2.12261    -2.04937
H      0.67843    -3.65364    -2.21977
H      0.81322    -2.68795    -3.52385
N      1.80841    -1.87939     2.21272
H      2.06431    -1.64114     3.16393
H      0.79567    -1.75305     2.13144
H      1.98343    -2.87192     2.10462
N      2.75877    -0.58878    -0.90565
H      2.52499    -0.95370     0.01344
H      3.76497    -0.62421    -0.97962
H      2.49974     0.38767    -0.89129
