 24
-339.61191759835197
N      1.46359     0.15313     2.52149
H      0.47804    -0.12836     2.49360
H      1.96482    -0.51974     3.08999
H      1.51377     1.04708     2.99664
N     -1.43204    -0.63211     2.39742
H     -1.65799    -1.59107     2.63790
H     -2.07779    -0.04085     2.90979
H     -1.63469    -0.50862     1.40141
N      0.24631    -1.40377    -2.06085
H      0.88036    -0.80564    -1.51765
H     -0.12034    -2.08316    -1.40443
H      0.78548    -1.92182    -2.74321
N     -0.23573     1.94010    -2.04371
H      0.22882     1.56389    -1.22867
H     -0.28471     1.17641    -2.70441
H      0.35559     2.65401    -2.44482
N     -2.15336    -0.22882    -0.47533
H     -2.21150     0.77509    -0.60981
H     -1.51012    -0.56216    -1.19264
H     -3.07429    -0.59906    -0.67951
N      2.09753     0.19969    -0.35973
H      2.37988     1.14361    -0.60240
H      1.87040     0.18729     0.64063
H      2.92133    -0.37837    -0.48662
