 24
-339.61057907859805
N      2.33718    -1.70564    -0.43182
H      2.85968    -2.50113    -0.78065
H      2.94866    -0.90000    -0.50737
H      2.16233    -1.85575     0.56076
N     -1.04750     4.10324     0.43034
H     -0.04720     4.24726     0.49554
H     -1.20148     3.21027    -0.02691
H     -1.41988     4.82562    -0.17306
N     -0.10464    -1.24808    -2.01128
H      0.27581    -0.91828    -2.89419
H      0.70098    -1.39993    -1.38660
H     -0.50151    -2.16197    -2.20899
N     -1.42576     1.54366    -1.40222
H     -2.34994     1.41784    -1.80126
H     -0.93478     2.18540    -2.01585
H     -0.94569     0.64726    -1.46942
N     -1.08203    -0.76060     1.15188
H     -1.89778    -1.03126     1.68654
H     -1.08916     0.25073     1.08849
H     -1.19829    -1.10519     0.20510
N      1.34625    -1.90219     2.48533
H      1.03396    -2.76923     2.90763
H      1.57364    -1.26478     3.24016
H      0.54627    -1.50350     1.98480
