 40
-566.0406741967523
N     -0.48525     2.37889    -2.04131
H      0.17293     2.73171    -1.35635
H     -0.64931     3.11458    -2.71516
H     -1.36350     2.21485    -1.55382
N      0.82270    -1.55710     0.16926
H      0.36824    -2.26067     0.73715
H      0.43888    -0.67115     0.47650
H      0.48613    -1.68692    -0.77687
N      0.30268    -0.33199    -2.94138
H     -0.01404     0.61163    -2.70859
H      1.12332    -0.50733    -2.37344
H      0.60855    -0.34548    -3.90565
N     -2.87496     1.45567     0.02827
H     -2.61573     1.31871     0.99602
H     -2.76083     0.54439    -0.42182
H     -3.85764     1.69794     0.01903
N      3.84325    -1.03246     0.04052
H      2.85419    -1.25869     0.12806
H      4.26530    -1.74699    -0.53851
H      4.25349    -1.11441     0.96237
N     -2.42757    -1.22038    -1.18818
H     -3.13529    -1.74585    -1.68372
H     -1.67869    -1.03516    -1.85270
H     -2.04124    -1.82762    -0.47045
N      0.11190    -0.70597     3.14579
H      0.97844    -1.12602     2.82887
H      0.22505    -0.51570     4.13359
H      0.04748     0.18927     2.65866
N     -2.02579    -2.77885     1.77755
H     -2.30751    -3.49284     2.43432
H     -1.44780    -2.10323     2.27095
H     -2.85960    -2.28595     1.48758
N      0.07769     1.87886     1.63493
H      0.96756     1.92476     1.14425
H     -0.65207     1.97319     0.93677
H      0.02764     2.68063     2.24859
N      2.60675     1.89254    -0.61197
H      3.31834     2.60204    -0.72282
H      2.16813     1.77199    -1.51671
H      3.08884     1.02120    -0.40305
