 36
-509.4323098688495
N      3.03280     1.92842    -1.69490
H      2.64660     2.05614    -0.76290
H      3.99151     1.63007    -1.57301
H      3.06518     2.84097    -2.12988
N      1.43324    -0.86765     2.19373
H      0.45688    -1.15364     2.09080
H      1.93010    -1.29045     1.41847
H      1.79360    -1.30161     3.03342
N     -0.84536     1.87832    -1.96947
H      0.16518     1.83014    -1.91429
H     -1.07506     2.50352    -2.72943
H     -1.17249     2.30945    -1.11056
N      1.38045     2.35304     1.25188
H      1.61429     3.04095     1.95431
H      0.41274     2.50353     0.99004
H      1.42856     1.43873     1.69260
N     -1.34858    -1.78674     1.87815
H     -1.80248    -1.94590     2.76736
H     -1.96126    -1.18958     1.32949
H     -1.30964    -2.68283     1.40100
N     -2.03150     1.91326     1.06809
H     -2.37028     1.15876     0.47791
H     -1.41415     1.48730     1.74751
H     -2.81351     2.29409     1.58129
N      1.05633    -0.99548    -1.25047
H      1.92526    -0.69782    -1.66948
H      0.32557    -0.61123    -1.83492
H      0.98222    -0.51561    -0.36089
N     -2.31904    -0.44102    -0.92182
H     -3.03526    -0.81881    -1.52814
H     -1.83486     0.31665    -1.41325
H     -1.65010    -1.18601    -0.76776
N     -0.36528    -4.00410    -0.57653
H      0.19562    -3.21262    -0.87901
H      0.27522    -4.68150    -0.18347
H     -0.76941    -4.42070    -1.40520
