 36
-509.42789164750764
N      1.30233    -0.17692    -2.86145
H      1.03181    -0.74332    -3.65684
H      0.46153     0.30154    -2.52381
H      1.92922     0.53246    -3.22392
N     -1.32425     2.07392     2.17532
H     -0.47223     1.71099     1.73193
H     -1.32539     3.08227     2.06632
H     -1.21026     1.90521     3.17003
N      2.97895    -1.72430    -0.17927
H      2.21394    -2.19637     0.28289
H      2.54618    -1.19989    -0.93385
H      3.55230    -2.43674    -0.60587
N      4.30607     0.62801     1.91078
H      4.53389     0.15709     2.77727
H      3.95533    -0.08725     1.27738
H      5.17251     0.96711     1.51246
N     -3.40859    -0.13533     1.55167
H     -3.21000    -0.83279     2.25937
H     -2.76357     0.63562     1.71378
H     -4.33876     0.21599     1.74643
N      1.06868     0.94946     0.88084
H      1.17832     1.05693    -0.12001
H      1.92843     1.26448     1.31773
H      1.00515    -0.04628     1.05096
N     -1.03470     1.18813    -1.71755
H     -1.14601     2.11557    -2.11332
H     -1.89641     0.68364    -1.91602
H     -0.99134     1.31777    -0.71146
N     -0.46426    -1.93882    -0.06886
H     -0.74963    -2.87995    -0.29554
H     -1.27192    -1.46831     0.31581
H     -0.25188    -1.47133    -0.94168
N     -3.50029    -0.69695    -1.75116
H     -3.48139    -0.42300    -0.77137
H     -4.46030    -0.88697    -2.00439
H     -2.98642    -1.56625    -1.80701
