 24
-339.6126767653914
N      1.64609    -2.18054     2.22078
H      0.99003    -2.88723     2.52223
H      1.23461    -1.71682     1.42159
H      2.47866    -2.64821     1.89013
N      2.26558     0.98755    -1.42251
H      1.85486     1.65263    -2.06555
H      3.07042     0.58200    -1.88250
H      1.57926     0.24658    -1.31748
N     -0.17832    -1.40841    -1.18629
H     -0.18685    -2.39656    -1.39517
H     -0.76966    -1.26033    -0.37864
H     -0.64331    -0.94024    -1.95713
N     -1.95099     0.82727     0.85967
H     -2.50134     0.64719     1.69246
H     -0.96070     0.78083     1.12205
H     -2.13548     1.79286     0.60501
N     -2.48720     0.81367    -2.28694
H     -2.22833     0.72374    -1.30679
H     -2.43359     1.79498    -2.53101
H     -3.46046     0.54280    -2.35941
N      0.85793     0.95478     1.75192
H      1.32695     0.22830     2.28390
H      0.76427     1.75057     2.37134
H      1.48131     1.23975     1.00240
