 24
-339.60916985319096
N      1.03853    -3.07816     1.77462
H      0.13018    -3.40776     1.47677
H      1.22892    -2.21472     1.28074
H      1.72567    -3.75477     1.47086
N      0.43666     1.95482     0.38813
H      0.74877     2.47335    -0.42415
H     -0.50153     1.64227     0.17199
H      0.34571     2.63117     1.13715
N      0.92032    -1.18945    -1.53288
H      1.35237    -1.20393    -2.44733
H      1.55442    -0.70528    -0.90084
H      0.88953    -2.15022    -1.21283
N     -2.74807     2.87929    -1.13714
H     -2.60004     1.87334    -1.14220
H     -3.64180     3.04990    -0.69367
H     -2.82432     3.17648    -2.10159
N     -1.90460    -0.32083    -0.78749
H     -0.94505    -0.48607    -1.09352
H     -1.93269    -0.61300     0.18435
H     -2.49855    -0.96437    -1.29871
N      2.33512    -0.09652     1.25089
H      3.21278     0.38235     1.41196
H      1.63833     0.60485     0.97964
H      2.05504    -0.48965     2.14090
