 36
-509.4276496533672
N     -0.74976     4.08206     0.59763
H      0.25525     4.17616     0.65602
H     -0.97136     4.01306    -0.39134
H     -1.14316     4.95398     0.92679
N     -1.53910     3.59008    -2.75355
H     -1.30673     2.59966    -2.74207
H     -2.47049     3.67554    -3.14058
H     -0.90593     4.03261    -3.40723
N      3.91680    -0.83793     0.53848
H      4.51094    -1.16613    -0.21125
H      4.51239    -0.37312     1.21092
H      3.55194    -1.66664     0.99858
N      2.66486    -3.70614     2.11378
H      3.05845    -4.63053     1.99418
H      2.42529    -3.60579     3.09170
H      1.79019    -3.68456     1.59582
N     -2.43868     1.10590     0.31865
H     -2.06806     1.98451     0.66918
H     -2.21550     1.06086    -0.66980
H     -3.44685     1.17190     0.39350
N     -1.83723    -1.39512     1.72582
H     -1.51026    -1.13369     2.65132
H     -1.97804    -0.52517     1.19328
H     -2.74966    -1.82072     1.85907
N     -0.54524     0.46374    -2.59625
H     -0.98138    -0.37402    -2.96473
H      0.22401     0.67108    -3.22561
H     -0.12627     0.21759    -1.69148
N     -0.08464    -3.38843     0.18361
H     -0.61866    -4.07619    -0.33261
H     -0.73719    -2.79141     0.69079
H      0.35356    -2.78188    -0.50068
N      0.67293     0.01384    -0.01494
H      0.39872    -0.68490     0.66593
H      1.68637     0.08104     0.02281
H      0.29947     0.89514     0.31761
