 24
-339.61218711771824
N     -0.54067    -3.53951     0.93564
H     -0.81401    -3.22991     1.85868
H     -0.67047    -4.54065     0.90132
H      0.45205    -3.36079     0.86533
N      1.18379     3.21425    -0.59945
H      1.26739     3.21605    -1.60780
H      0.23562     2.91614    -0.37894
H      1.27469     4.17290    -0.28883
N      1.55153    -1.87399    -0.92777
H      1.33930    -0.89014    -0.82156
H      1.97028    -1.98557    -1.84108
H      0.65688    -2.34604    -0.94372
N     -1.78427     2.23099     0.40744
H     -1.37172     1.72784     1.18409
H     -2.49169     2.84285     0.78881
H     -2.25031     1.54193    -0.17038
N     -1.76373    -0.67894    -0.98036
H     -1.08024    -0.15997    -0.44507
H     -1.86801    -1.57499    -0.52416
H     -1.33920    -0.85340    -1.87969
N      1.13629     0.66435     1.33906
H      1.39627     1.48664     0.80059
H      1.33540     0.85244     2.31116
H      1.74147    -0.09628     1.06295
