 36
-509.42633395492857
N     -3.23048     1.64591    -1.45727
H     -4.19738     1.63600    -1.14760
H     -2.65068     1.60781    -0.60803
H     -3.08404     2.55216    -1.88788
N      4.70408    -0.72234    -0.00783
H      4.85608    -1.60423     0.46586
H      5.51256    -0.55393    -0.59487
H      3.90533    -0.85714    -0.62658
N      2.10771     1.26774     0.58386
H      3.02211     0.83196     0.68564
H      2.28147     2.23887     0.35733
H      1.68585     0.84468    -0.23452
N      1.14360     0.18466     3.20004
H      1.68992    -0.64646     3.40768
H      1.38511     0.86571     3.91243
H      1.48592     0.54197     2.30411
N     -1.66319     1.70464     1.03244
H     -1.99130     0.91780     1.59189
H     -0.65637     1.71168     1.14917
H     -1.99832     2.55050     1.48109
N     -0.52593    -0.65069    -1.05316
H     -0.79678    -0.75983    -0.08437
H     -0.82302     0.28039    -1.32020
H     -1.08094    -1.29860    -1.60526
N     -3.10525    -1.24883    -3.00805
H     -3.09552    -0.36316    -2.50410
H     -3.12688    -1.02036    -3.99490
H     -3.98590    -1.69758    -2.78517
N     -1.64875    -0.83935     2.68317
H     -0.72667    -0.43126     2.86594
H     -2.09042    -1.02322     3.57581
H     -1.48904    -1.74135     2.24771
N      2.19393    -1.34822    -1.95598
H      2.22156    -1.05408    -2.92724
H      2.24722    -2.36261    -1.97208
H      1.26021    -1.11339    -1.60419
