 36
-509.43136430936045
N     -1.21187    -1.08508    -2.84825
H     -1.79566    -0.92473    -2.03679
H     -1.69865    -1.75265    -3.42788
H     -0.36659    -1.53456    -2.50440
N      3.50483     0.64779     2.26681
H      2.68689     0.11394     2.54850
H      4.08565     0.02468     1.72147
H      4.01566     0.87983     3.10850
N      1.59381    -1.94387    -1.30037
H      1.77469    -1.01751    -1.68648
H      1.55995    -1.81243    -0.29824
H      2.39175    -2.53444    -1.49636
N      0.67225     1.96232     0.86470
H      0.20531     1.20101     1.34111
H      1.66433     1.80559     1.01112
H      0.45086     2.80727     1.37182
N     -3.91415    -0.07608     0.56081
H     -4.66594    -0.44950    -0.00319
H     -4.33562     0.51361     1.26580
H     -3.37708     0.53568    -0.04635
N     -0.90740    -1.18235     0.85307
H     -1.85672    -1.44807     1.08322
H     -0.96817    -0.27329     0.40697
H     -0.56367    -1.82593     0.15223
N      1.55482     0.94740    -2.32769
H      0.72164     0.84309    -2.89138
H      1.26978     1.37722    -1.45431
H      2.16084     1.60477    -2.79545
N      0.74474    -1.09302     3.35088
H      0.17539    -0.65243     4.06349
H      0.17073    -1.16352     2.51074
H      0.92063    -2.03780     3.66990
N     -1.87178     1.73868    -1.55347
H     -2.24381     2.51802    -2.07633
H     -1.09297     2.09322    -1.01387
H     -1.49244     1.07845    -2.22249
