 24
-339.6063039957798
N      2.41843    -3.27814    -0.40679
H      2.70068    -3.72068    -1.27194
H      3.14716    -3.46268     0.27058
H      1.58122    -3.74779    -0.08037
N      0.88242    -0.22033     0.37087
H      1.43664    -1.03908     0.13888
H      0.72649     0.28687    -0.49177
H      1.43285     0.37805     0.97246
N     -0.82082    -3.17056    -0.08110
H     -0.31054    -2.87497    -0.90220
H     -1.75164    -3.43627    -0.37021
H     -0.89078    -2.35011     0.50365
N     -1.52981     3.29412    -1.84516
H     -1.78089     2.42924    -1.37460
H     -0.68682     3.63203    -1.40182
H     -2.26077     3.97031    -1.66687
N     -2.11479     0.41438    -0.16927
H     -2.30778    -0.40116    -0.73876
H     -1.24422     0.21721     0.31593
H     -2.85519     0.46883     0.51883
N      1.49890     2.84896     2.12164
H      1.96904     3.67283     1.77080
H      0.53666     2.88826     1.81383
H      1.49282     2.89914     3.13134
