 36
-509.429639848458
N     -2.51734    -0.25943     0.18305
H     -2.51545     0.71985     0.44677
H     -2.40556    -0.29363    -0.82786
H     -3.44326    -0.61161     0.39025
N     -1.16515     2.17482     2.02379
H     -0.33057     1.97093     1.46612
H     -0.89022     2.71486     2.83423
H     -1.51133     1.28728     2.36317
N      3.66645    -0.75095     0.09274
H      4.13487    -1.03563    -0.75774
H      4.37591    -0.31975     0.67332
H      3.37427    -1.60190     0.56538
N      2.22684    -3.15053     1.55966
H      1.91388    -4.07458     1.28696
H      2.39067    -3.18117     2.55948
H      1.45109    -2.50318     1.40828
N     -1.43466     3.05454    -1.10780
H     -1.88110     2.20921    -1.44230
H     -1.48452     3.03369    -0.09349
H     -2.00501     3.82667    -1.42365
N     -0.16354    -1.25922     1.64232
H     -1.01865    -0.98960     1.13954
H     -0.41523    -1.70985     2.51599
H      0.32163    -0.40263     1.88587
N     -1.76122     0.22260    -2.96916
H     -1.05266    -0.38667    -2.55346
H     -2.04152    -0.16984    -3.85849
H     -1.30981     1.10604    -3.17069
N      1.01576     1.46731     0.11722
H      1.10364     2.36110    -0.34995
H      1.91869     1.00485     0.12701
H      0.39016     0.91497    -0.46013
N      0.23249    -1.42874    -1.59552
H      1.12865    -0.98436    -1.43096
H     -0.10001    -1.73061    -0.68569
H      0.42171    -2.26732    -2.12843
