 36
-509.4279136603384
N      2.33127     0.28957    -3.01994
H      2.61017     0.96650    -3.72094
H      2.39058     0.75560    -2.10497
H      3.04477    -0.43212    -3.02183
N     -0.43312     0.70248    -0.69235
H      0.19127     0.15525    -0.11252
H     -1.03410     0.04101    -1.17035
H      0.13113     1.14487    -1.40552
N      2.51143     1.70895    -0.45439
H      1.73110     2.34886    -0.33918
H      2.41086     1.02607     0.31088
H      3.35149     2.25258    -0.28555
N     -0.32405    -2.49269     0.40971
H     -1.31047    -2.28997     0.53341
H     -0.12404    -2.30271    -0.56453
H     -0.19812    -3.48455     0.55009
N     -3.35425    -1.04616     1.17368
H     -3.04941    -0.08212     1.21438
H     -4.00423    -1.11140     0.40366
H     -3.88170    -1.22174     2.01735
N     -0.29950    -1.61580    -3.24253
H      0.43629    -0.92806    -3.09086
H      0.15588    -2.45212    -3.58360
H     -0.87758    -1.26838    -3.99800
N     -2.04837     2.50007     1.04976
H     -1.42977     1.93162     0.46281
H     -2.77079     2.87198     0.44456
H     -1.50572     3.29754     1.36564
N      2.06086    -0.19822     1.78112
H      2.83246    -0.25347     2.43713
H      1.22963     0.12837     2.28793
H      1.84879    -1.15260     1.51025
N     -0.52902     0.18247     2.97683
H     -0.65916     0.04075     3.96976
H     -1.12982     0.94334     2.68013
H     -0.82958    -0.65824     2.50022
