 24
-339.61066139703007
N      0.68595    -0.58999     0.94508
H      0.54506     0.25319     1.48854
H      1.20320    -1.24183     1.52044
H      1.22263    -0.33959     0.11631
N     -0.84911    -0.05693    -2.21747
H     -1.40084     0.79069    -2.12679
H     -1.33096    -0.66129    -2.86927
H     -0.85565    -0.51379    -1.31335
N      2.01026     0.33552    -1.79019
H      2.54946    -0.24393    -2.42370
H      1.02265     0.24545    -2.05263
H      2.28532     1.29518    -1.96664
N     -2.85202     2.33711    -0.80687
H     -2.47005     3.17435    -0.38719
H     -3.85339     2.46158    -0.87722
H     -2.69193     1.57917    -0.14912
N     -2.37899    -0.23868     1.42344
H     -2.99129    -1.02993     1.26676
H     -1.42807    -0.55204     1.24642
H     -2.44372    -0.01896     2.40970
N      3.48253    -1.90481     2.49040
H      4.05426    -1.42537     3.17330
H      3.99162    -2.71891     2.17196
H      3.39512    -1.28549     1.69509
