 36
-509.4270009914729
N     -1.88189     1.07277    -2.66560
H     -1.43151     0.17748    -2.80940
H     -2.06277     1.12803    -1.67245
H     -2.77828     1.02918    -3.13277
N      0.57858     1.04911     3.11986
H      0.33433     1.79839     2.48171
H     -0.30242     0.57262     3.34863
H      0.92341     1.49330     3.96415
N      3.60015    -1.09891    -0.53468
H      4.39826    -1.71944    -0.58466
H      3.87956    -0.22795    -0.97141
H      3.43545    -0.89513     0.44594
N      2.48322    -1.10927     2.39263
H      2.62650    -1.65350     3.23507
H      1.81659    -0.36769     2.62740
H      2.02029    -1.72688     1.73478
N     -3.26810    -0.05790     1.00555
H     -3.80530     0.77987     0.82060
H     -2.31887     0.09650     0.65541
H     -3.67831    -0.81636     0.47508
N     -2.02938    -0.23482     3.74089
H     -2.57569     0.31186     4.39492
H     -2.53619    -0.25156     2.85549
H     -1.99325    -1.18258     4.09856
N      0.47286     1.07459    -4.67437
H     -0.26031     1.38505    -4.04531
H      1.18407     1.79486    -4.69145
H      0.06885     1.03341    -5.60194
N     -0.43161     0.55455     0.01844
H     -0.23822     1.42995    -0.45673
H      0.25174     0.46574     0.76341
H     -0.21969    -0.17097    -0.67060
N      0.62162    -1.29097    -2.14893
H      0.45686    -2.25837    -2.39141
H      0.87907    -0.80117    -3.00091
H      1.43663    -1.27079    -1.54229
