 24
-339.6097550857935
N      0.31965    -1.36358     2.28740
H      0.34988    -0.91176     3.19210
H     -0.36822    -0.86233     1.73588
H     -0.04299    -2.29677     2.42872
N     -3.42038     1.10044     0.76421
H     -3.68964     0.65651     1.63411
H     -4.20541     1.01350     0.13093
H     -2.65170     0.55799     0.37290
N      2.64978    -2.78769    -2.50515
H      2.55473    -2.14481    -1.72507
H      2.47505    -2.26820    -3.35620
H      1.92647    -3.49102    -2.42211
N     -0.98729     3.02205     0.35774
H     -1.13750     3.83571    -0.22520
H     -1.89787     2.62269     0.57355
H     -0.58725     3.34930     1.22870
N     -0.89097    -0.02442    -0.53605
H     -0.03492    -0.51889    -0.32907
H     -1.08946    -0.20661    -1.51215
H     -0.72759     0.97488    -0.43552
N      2.65403    -0.52933    -0.01908
H      3.61636    -0.30112     0.18942
H      2.17743     0.33900    -0.22481
H      2.23326    -0.90143     0.82547
