 40
-566.0398342180022
N     -0.32912    -1.89417     0.29519
H     -0.09447    -1.06377     0.82001
H      0.33491    -2.60895     0.55102
H     -0.14215    -1.66028    -0.67073
N     -2.94281    -0.95987     1.21195
H     -3.52313    -1.62796     1.70272
H     -3.44304    -0.69745     0.37251
H     -2.08742    -1.43241     0.91638
N      1.48208    -0.25138    -2.63109
H      0.50014    -0.42028    -2.81605
H      1.53386     0.63989    -2.15444
H      1.94295    -0.14646    -3.52156
N     -3.17053     1.88315    -0.52861
H     -4.10919     2.25408    -0.58104
H     -3.08176     1.40084     0.35886
H     -2.53503     2.66918    -0.49522
N      1.97659    -0.39925     2.53340
H      2.29797    -0.44343     3.49268
H      1.05735     0.05075     2.52538
H      1.85561    -1.35614     2.22226
N     -0.63635     1.01115     2.38094
H     -1.45852     0.43603     2.20712
H     -0.77993     1.48888     3.26224
H     -0.60912     1.73271     1.66835
N      3.00234    -2.34239     0.01530
H      3.87390    -2.72921    -0.31643
H      2.53228    -1.94744    -0.79103
H      3.23201    -1.56026     0.61386
N     -1.90685    -0.77622    -2.37580
H     -2.50385    -1.07431    -3.13327
H     -1.96868    -1.47781    -1.65016
H     -2.30627     0.07309    -1.99004
N      2.84782     1.38506     0.02511
H      2.62693     0.91586     0.90042
H      3.01591     0.65584    -0.65559
H      3.72113     1.87694     0.15477
N     -0.07314     2.90451    -0.70885
H     -0.56654     2.10223    -1.08031
H      0.81958     2.56667    -0.36362
H      0.12146     3.52518    -1.48391
