 16
-226.40138138334288
N      2.27919    -0.78286     0.79822
H      2.97592    -0.41029     0.16530
H      2.77106    -1.36358     1.46618
H      1.68077    -1.39990     0.25224
N     -0.92308     0.06327     0.86579
H     -1.36225    -0.00457     1.77447
H      0.08032     0.13606     1.01937
H     -1.24119     0.93096     0.44937
N     -1.45733     3.07853    -0.85554
H     -1.98257     3.07622    -1.71918
H     -1.55304     3.99128    -0.43160
H     -0.48154     2.95896    -1.09591
N      0.03692    -2.40384    -0.75165
H     -0.39210    -3.27358    -0.45821
H     -0.41935    -1.64933    -0.23794
H     -0.19268    -2.27613    -1.73039
