 24
-339.6090437663427
N      2.45511    -3.13649     1.07917
H      1.46657    -3.35953     1.07205
H      2.87123    -3.62663     1.86139
H      2.52309    -2.13734     1.26002
N      0.18422     2.07951    -0.02147
H     -0.10088     2.40714    -0.93677
H     -0.67652     1.84168     0.45798
H      0.58602     2.87269     0.46258
N      0.02769    -1.15720    -1.09263
H      0.81422    -1.44399    -0.52248
H      0.06417    -1.73077    -1.92337
H      0.24518    -0.21000    -1.38075
N     -2.56373     0.01349     0.85239
H     -2.36555    -0.11403     1.83741
H     -3.40479    -0.51500     0.65653
H     -1.80981    -0.44853     0.34833
N     -2.29297     1.87088    -2.10026
H     -2.71471     1.76498    -1.18655
H     -2.96159     2.34982    -2.68684
H     -2.19381     0.92980    -2.45771
N      2.29873     0.15382     1.16158
H      2.27521     0.51602     2.10891
H      3.15897     0.49065     0.74099
H      1.53705     0.61430     0.66448
