 24
-339.6103198490359
N      1.09701    -2.98130     1.23508
H      1.17929    -3.98857     1.22995
H      0.39205    -2.72934     0.55506
H      1.96704    -2.60273     0.88565
N      0.39109     2.66483    -0.17816
H      0.26049     3.25990    -0.98491
H     -0.52826     2.44316     0.19608
H      0.84500     3.23966     0.52124
N      0.84807    -1.05048    -1.61806
H      1.40837    -0.85924    -0.78676
H      1.41236    -1.60133    -2.25533
H      0.70562    -0.15315    -2.06953
N     -2.48532     1.53095     1.23531
H     -3.43938     1.86453     1.16917
H     -2.41801     0.71248     0.63510
H     -2.35393     1.21003     2.18732
N     -2.14164    -0.21422    -1.36150
H     -1.97642     0.78226    -1.42083
H     -1.23589    -0.67265    -1.36114
H     -2.63490    -0.48960    -2.20056
N      2.22707     0.13113     0.88193
H      1.73847    -0.28270     1.66859
H      3.04985     0.59702     1.24215
H      1.61234     0.84304     0.49583
