 28
-396.2169733867758
N      0.52307    -3.06090    -0.56504
H      0.98365    -2.78517     0.29743
H     -0.47176    -2.89370    -0.41015
H      0.65879    -4.06180    -0.65653
N      1.45005     2.99698     0.48254
H      2.45280     3.01420     0.35605
H      1.11318     3.94077     0.34830
H      1.06931     2.44577    -0.28033
N      1.72058    -0.94485    -2.53787
H      1.70482    -1.28280    -3.49267
H      2.68945    -0.88504    -2.24781
H      1.26762    -1.64643    -1.94917
N     -1.68426     0.57611     0.89276
H     -0.95840     0.91973     0.27231
H     -1.26233     0.52438     1.81469
H     -2.39623     1.29316     0.94743
N     -2.32514    -2.40813     0.23096
H     -3.16293    -2.48633    -0.33459
H     -2.53002    -2.81686     1.13656
H     -2.14097    -1.41731     0.38817
N     -0.11653     1.33595    -2.04196
H      0.55672     0.58477    -2.21062
H     -0.98494     0.87365    -1.80072
H     -0.28373     1.80084    -2.92780
N      0.42572     1.52077     3.43497
H      0.27965     2.28477     4.08240
H      1.22571     0.99637     3.76547
H      0.69761     1.93759     2.54792
