 36
-509.43140697529776
N     -1.56777     0.70433     1.34143
H     -0.94282     0.29990     2.03984
H     -0.98880     1.21076     0.68076
H     -2.14158     1.40434     1.79659
N      2.34170    -1.63391     0.45341
H      3.27171    -2.00968     0.33981
H      1.92019    -1.54889    -0.46796
H      2.44712    -0.69491     0.81641
N      1.02632     1.86575    -1.26243
H      1.24036     0.88278    -1.41474
H      0.07779     2.01661    -1.61157
H      1.65114     2.38134    -1.87305
N      2.36555     2.08389     1.52571
H      1.87269     2.08985     0.63302
H      2.11011     2.94051     2.00297
H      3.35040     2.16451     1.30686
N     -1.79276     1.98838    -2.38110
H     -1.76979     1.86821    -3.38826
H     -2.18662     1.12843    -1.97787
H     -2.45568     2.73587    -2.20615
N     -0.66802    -2.69126     0.47273
H      0.33583    -2.69950     0.61830
H     -1.04786    -1.94204     1.03649
H     -1.04352    -3.55553     0.83394
N      0.45223    -1.42388    -2.03005
H     -0.02130    -1.94982    -1.29388
H     -0.12188    -0.61116    -2.21354
H      0.46141    -1.97456    -2.87659
N      0.55030    -0.41275     3.05708
H      0.96690    -1.16736     2.52332
H      1.04409     0.43178     2.78248
H      0.74561    -0.58492     4.03231
N     -2.72855    -0.50679    -1.07528
H     -2.34195    -0.23076    -0.16372
H     -3.73466    -0.56111    -0.97956
H     -2.40308    -1.44621    -1.26438
