 12
-169.7983008697941
N     -0.43359     1.78314    -0.04903
H     -0.39869     0.89768    -0.53513
H     -0.17470     2.50407    -0.70913
H      0.28673     1.74398     0.66052
N      2.10124    -0.70027     0.04510
H      2.48103    -0.61340     0.97685
H      2.06528     0.22335    -0.35874
H      1.15287    -1.03646     0.12480
N     -1.57407    -1.27720    -0.07157
H     -1.94924    -0.37516     0.19044
H     -2.06988    -1.58214    -0.89860
H     -1.80771    -1.92039     0.67238
