 24
-339.60396027242297
N      1.57942    -1.41950    -0.25950
H      1.89300    -0.88550     0.55721
H      1.64659    -2.40314    -0.01870
H      2.25546    -1.26110    -0.99872
N     -2.13275    -0.78656     1.42657
H     -1.89644    -0.71440     0.43335
H     -2.19458    -1.77473     1.65046
H     -3.06584    -0.40834     1.55029
N     -1.10253    -0.65659    -1.37613
H     -0.20097    -0.87489    -0.93663
H     -1.25370    -1.31710    -2.12923
H     -1.01526     0.26532    -1.78735
N     -0.58833     2.15532    -5.23850
H      0.00388     1.44736    -5.65510
H     -0.12616     2.50005    -4.40742
H     -1.45091     1.71142    -4.95240
N     -0.22068     0.53751     3.32680
H     -0.83134     0.10855     2.62410
H     -0.41421     0.08414     4.21274
H     -0.50100     1.50761     3.41984
N      2.49559     0.17674     2.09481
H      2.79876     1.10368     1.81771
H      1.57633     0.27700     2.53925
H      3.15080    -0.16036     2.79104
