 24
-339.60945296979816
N      1.80054    -1.77640     2.14056
H      0.77839    -1.78293     2.04945
H      2.16978    -2.52255     1.56145
H      2.02415    -2.00669     3.10227
N     -1.12283    -1.54425     1.79508
H     -1.53574    -2.07687     1.03912
H     -1.74955    -1.59554     2.58830
H     -1.06833    -0.56980     1.48435
N     -1.06199    -0.86602    -1.94678
H     -0.37732    -1.54045    -2.26168
H     -0.79661    -0.58651    -1.01091
H     -1.95452    -1.33834    -1.88786
N     -1.20011     2.01844    -3.74148
H     -1.29229     1.80665    -4.72778
H     -1.16327     1.13198    -3.24496
H     -2.05453     2.48083    -3.45600
N     -0.60187     1.25260     0.54167
H     -1.03790     2.03303     1.02216
H      0.40062     1.26107     0.78812
H     -0.67359     1.46031    -0.44945
N      2.20303     1.05529     1.31456
H      2.17251     0.07695     1.62451
H      2.84862     1.12169     0.53732
H      2.57085     1.62242     2.06774
