 36
-509.43056446084597
N      0.25846     2.83096    -0.46396
H      0.82464     2.14088    -0.97847
H     -0.66868     2.76759    -0.86455
H      0.60929     3.75421    -0.69417
N      0.37317    -1.89225    -0.59032
H     -0.17257    -1.48867     0.16597
H     -0.00573    -1.48332    -1.44417
H      0.15379    -2.88097    -0.61011
N      3.26885    -1.25696    -0.41869
H      3.85510    -2.05853    -0.60611
H      2.28890    -1.54365    -0.50967
H      3.39654    -1.01306     0.55452
N      1.76040     1.10639     1.54524
H      2.34692     0.88458     0.74875
H      1.12719     1.82818     1.20249
H      2.35643     1.53697     2.24197
N     -2.43603     0.76800    -0.23835
H     -1.60257     1.16734     0.18249
H     -2.88565     0.21044     0.48202
H     -3.04696     1.54943    -0.44047
N     -0.08652    -0.93641     2.61472
H      0.29862    -1.80462     2.26062
H      0.52506    -0.19642     2.25107
H      0.03089    -0.96285     3.62056
N     -1.57434    -0.77427    -2.66444
H     -1.93241    -1.72241    -2.63775
H     -1.89046    -0.31929    -1.80163
H     -2.03993    -0.31363    -3.43667
N     -3.13447    -0.69408     2.32842
H     -2.11171    -0.68506     2.32947
H     -3.42186    -1.62187     2.61449
H     -3.43647    -0.04813     3.04884
N      1.60811     0.87410    -2.18658
H      2.19342     0.14751    -1.78358
H      0.83277     0.41870    -2.65215
H      2.14436     1.34320    -2.90408
