 40
-566.0362127582337
N     -2.52626    -2.07634     0.46805
H     -2.87662    -1.63561    -0.37181
H     -3.30789    -2.55160     0.90093
H     -2.21585    -1.32025     1.09067
N     -1.65540     0.07838     2.25325
H     -2.10879     0.04463     3.15711
H     -0.65879    -0.03192     2.41910
H     -1.76141     1.02296     1.90250
N     -2.50272     2.52709    -0.07131
H     -1.63923     2.30246    -0.56405
H     -2.91182     1.63441     0.17622
H     -3.12797     2.95224    -0.74306
N      2.05864    -2.59838    -1.59363
H      1.57644    -2.43903    -0.69716
H      1.38646    -3.03418    -2.21292
H      2.78583    -3.28629    -1.43192
N      0.73425    -2.19953     1.01339
H      1.06045    -2.92002     1.64465
H      0.89890    -1.30616     1.47273
H     -0.27167    -2.32234     0.93424
N      0.17602     3.27612     1.42679
H      0.43087     2.98998     0.48846
H     -0.81366     3.49297     1.38712
H      0.68429     4.12499     1.63112
N      3.18876     0.26085    -1.40653
H      3.65891     0.54310    -2.25796
H      3.90326     0.22271    -0.68950
H      2.86403    -0.69596    -1.54393
N     -0.99772    -1.37186    -2.40742
H     -1.31085    -2.00145    -3.13172
H      0.00087    -1.24729    -2.51894
H     -1.12207    -1.82544    -1.50867
N      1.44144     0.65662     1.94369
H      2.23736     0.85051     2.53868
H      1.81511     0.44160     1.02581
H      0.90186     1.52200     1.86400
N      0.00331     1.64914    -1.64105
H     -0.57884     0.84816    -1.86879
H      0.92794     1.27074    -1.45701
H      0.06962     2.21693    -2.47630
