 24
-339.61355915283366
N     -0.28293    -2.66333     0.83009
H      0.04429    -3.58255     0.55952
H     -0.05830    -2.03463     0.06423
H      0.29733    -2.35711     1.60165
N      1.18758     1.93937     1.47719
H      1.27760     2.94769     1.45576
H      0.32539     1.72042     0.98589
H      1.05022     1.67713     2.44531
N     -1.82739     1.90132     0.09895
H     -2.29300     2.46912    -0.60068
H     -2.19086     0.94798     0.01527
H     -2.14265     2.25542     0.99729
N      0.34914    -0.50706    -1.70924
H      0.36646    -0.49777    -2.71880
H     -0.07835     0.36334    -1.41295
H      1.31709    -0.46174    -1.40576
N     -2.78431    -0.89256    -0.27804
H     -2.17575    -1.17462    -1.03805
H     -3.71894    -1.20126    -0.50902
H     -2.47143    -1.43679     0.51977
N      3.49848     0.20098    -0.32503
H      4.14115     0.82212    -0.79940
H      2.91167     0.77791     0.27178
H      4.04525    -0.39764     0.27983
