 36
-509.4293630159811
N     -1.03559    -1.15723    -0.55397
H     -0.86683    -1.95046     0.05179
H     -0.46177    -0.40823    -0.18085
H     -1.99726    -0.87825    -0.40784
N      2.39631     0.22433     0.33727
H      1.87739     0.93779     0.83920
H      3.37829     0.37908     0.52450
H      2.24402     0.34952    -0.66210
N      0.71054     2.94169     1.31151
H      1.31996     2.99412     0.50477
H      0.69783     3.85715     1.74080
H     -0.21849     2.74018     0.94779
N      1.44249    -2.49866     0.89348
H      2.19768    -3.12225     1.15414
H      1.11767    -2.80752    -0.01497
H      1.84226    -1.56408     0.72823
N     -1.93696     1.92455    -0.13418
H     -1.53306     1.38609    -0.89079
H     -2.63174     2.53103    -0.54931
H     -2.41789     1.26310     0.47403
N     -0.20066    -0.34104     2.61489
H      0.33247    -1.05922     2.12925
H      0.26661     0.54651     2.47484
H     -0.13444    -0.54313     3.60440
N     -0.44827    -1.34322    -3.53631
H     -0.39135    -2.32241    -3.78921
H     -0.61324    -1.29624    -2.53130
H     -1.27021    -0.96721    -3.99383
N     -3.09378    -0.15002     2.01818
H     -3.58375    -0.99801     2.28168
H     -2.08539    -0.30879     2.14712
H     -3.36303     0.55341     2.69765
N      2.06720     0.42652    -2.81148
H      2.90642    -0.06553    -3.09526
H      1.27937    -0.12068    -3.15111
H      2.06076     1.31001    -3.30676
