 24
-339.61073313166366
N      3.47691    -0.80951    -0.46586
H      4.00257    -1.31561     0.23335
H      3.79983     0.14840    -0.45994
H      2.51425    -0.78435    -0.16119
N      0.06818     1.99927     1.25843
H      0.69507     2.78967     1.21910
H      0.09801     1.54730     0.35211
H     -0.87372     2.36280     1.36777
N      0.77389    -2.11552    -1.84519
H      0.57120    -2.34837    -0.88104
H      0.66136    -2.96294    -2.38299
H      1.75149    -1.85620    -1.88615
N     -1.55629    -0.06869    -1.01026
H     -1.30826    -0.73523    -0.28903
H     -2.49858    -0.29404    -1.30583
H     -0.94437    -0.27684    -1.78984
N     -3.13722     2.17289     0.49129
H     -2.50198     1.52671     0.02798
H     -3.86004     1.61587     0.92991
H     -3.57998     2.73031    -0.22916
N      0.43110    -1.09920     1.62324
H      0.20952    -0.10629     1.65219
H     -0.12799    -1.55650     2.33219
H      1.39239    -1.18385     1.92938
