 36
-509.4286929659942
N      2.01479     2.01705    -2.44657
H      2.34640     1.23817    -3.00418
H      2.37966     1.88243    -1.49860
H      2.44251     2.85138    -2.82832
N     -0.01251    -2.36507    -0.75210
H      0.20251    -3.32870    -0.96455
H     -0.99944    -2.32677    -0.51758
H      0.12675    -1.83399    -1.60589
N     -0.24051     0.02955    -2.97156
H      0.35117     0.82352    -2.73419
H     -0.79989     0.27901    -3.77601
H     -0.88986    -0.09187    -2.20424
N      1.97899    -0.74011     1.58933
H      2.59295    -1.27113     2.19540
H      1.10706    -0.55889     2.09450
H      1.71638    -1.36869     0.83466
N     -3.09098    -1.98486     0.68597
H     -3.13774    -0.97336     0.79115
H     -3.11037    -2.37010     1.62196
H     -3.93804    -2.28678     0.22421
N     -3.10061     1.20402     0.72379
H     -3.58696     1.27768    -0.16320
H     -2.09916     1.25812     0.50353
H     -3.35033     2.03369     1.24820
N     -0.21442     1.24624     0.12108
H      0.02491     0.31246    -0.18739
H      0.02274     1.89239    -0.61945
H      0.37745     1.43933     0.91796
N     -0.73405    -0.63624     2.66198
H     -0.88250    -1.02118     3.58434
H     -1.46826     0.03108     2.47359
H     -0.83934    -1.38798     1.99185
N      3.39272     1.50299     0.19176
H      4.14326     1.00105    -0.27168
H      3.83721     2.10061     0.87994
H      2.83740     0.79353     0.68797
