 12
-169.794542996624
N     -0.16013     1.56150     0.11725
H      0.73625     1.09481     0.09997
H     -0.33971     1.83605     1.07159
H     -0.86945     0.89396    -0.14465
N      2.97418    -0.22885    -0.06844
H      3.15964    -0.99405     0.56540
H      2.93133    -0.60868    -1.00438
H      3.76333     0.40146    -0.03210
N     -2.80614    -1.10006    -0.09234
H     -3.49981    -0.89431    -0.79796
H     -2.38868    -1.99052    -0.32509
H     -3.29067    -1.21236     0.78754
