 24
-339.6085956453785
N      0.08942     0.43339     0.53050
H      0.33744     0.74499    -0.40836
H     -0.81656     0.82261     0.76357
H      0.75021     0.83352     1.18654
N      0.65708     1.23159    -2.31788
H      0.02397     0.64575    -2.85022
H      0.32496     2.18380    -2.41569
H      1.56677     1.17844    -2.76785
N      3.90113     0.75626    -2.53700
H      3.39795     0.63589    -1.66750
H      4.35654    -0.12450    -2.73464
H      4.61832     1.44885    -2.37017
N     -2.26230    -1.55723     0.76564
H     -2.13230    -2.31849     1.42258
H     -2.57103    -1.97341    -0.10546
H     -1.35110    -1.14201     0.59996
N     -4.74991     0.32997     1.91839
H     -4.52991     0.66351     2.84787
H     -3.94331    -0.17925     1.56836
H     -4.89562     1.13645     1.32514
N      2.61377    -1.18302     1.79677
H      1.81188    -1.02633     1.19407
H      3.12765    -1.97045     1.42087
H      2.24842    -1.47247     2.69599
