 36
-509.42599810307587
N     -1.83319     2.02018    -2.59365
H     -1.54488     2.79105    -3.18248
H     -1.58234     2.26178    -1.64105
H     -1.25718     1.21457    -2.82628
N      1.40893     1.01628     2.69878
H      1.74843     1.96913     2.61537
H      0.67521     0.89064     1.99432
H      0.94896     0.97079     3.60308
N     -0.59173     0.27172     0.69468
H     -0.59060     0.23720    -0.31729
H     -0.33147    -0.65522     1.01157
H     -1.54834     0.42367     0.99737
N      3.67099    -2.63489    -0.07052
H      3.00089    -3.39149    -0.00579
H      4.59396    -3.04703    -0.12232
H      3.61923    -2.11764     0.80519
N     -3.82882     0.79883     1.67912
H     -4.09836     1.69613     2.06038
H     -4.35676     0.09222     2.17491
H     -4.15057     0.78178     0.71502
N     -4.77584     0.57406    -1.64276
H     -4.81627    -0.38886    -1.95115
H     -3.90766     0.95820    -2.00404
H     -5.53232     1.06793    -2.09847
N     -0.01189    -0.69247    -2.85562
H      0.39275    -0.78029    -3.78293
H     -0.40020    -1.60569    -2.64103
H      0.77098    -0.53161    -2.20715
N      2.21655    -0.07143    -1.06306
H      2.81895     0.63752    -1.46517
H      1.96204     0.26666    -0.14211
H      2.78442    -0.90351    -0.92174
N      3.65204    -1.14871     2.95731
H      3.37996    -1.72617     3.74287
H      4.50230    -0.66597     3.22044
H      2.93065    -0.44034     2.84673
