 32
-452.8253844230389
N     -1.38850     2.73400    -1.17338
H     -1.57602     2.36367    -0.24629
H     -0.98920     3.65570    -1.04692
H     -2.28160     2.86233    -1.62888
N     -1.50116     1.40453     1.96234
H     -0.56569     1.35177     2.34648
H     -2.09250     1.79360     2.68492
H     -1.80468     0.44633     1.80515
N     -2.28779    -1.57829     1.28231
H     -1.99866    -2.52512     1.50071
H     -3.29922    -1.58911     1.21125
H     -1.91062    -1.36408     0.35152
N      1.54803     1.05799    -2.24630
H      0.65653     1.43988    -1.94845
H      1.59465     1.17318    -3.24847
H      1.50319     0.06299    -2.07145
N      1.69177    -2.56692    -1.14287
H      1.48377    -2.23538    -0.19654
H      1.47991    -3.55833    -1.16266
H      2.69559    -2.49027    -1.26717
N      1.16076    -1.60578     1.62020
H      0.19289    -1.41611     1.85333
H      1.55707    -2.16152     2.36739
H      1.63513    -0.70664     1.63092
N     -1.24291    -0.97561    -1.39968
H     -1.88193    -1.32338    -2.10260
H     -1.10882     0.00890    -1.59315
H     -0.34999    -1.43972    -1.54998
N      1.81344     1.66571     1.07254
H      2.21658     1.47695     0.16301
H      2.26755     2.49366     1.43050
H      0.84741     1.90650     0.88738
