 36
-509.42737032193793
N     -1.64316     2.64888     1.92685
H     -0.72103     2.20658     1.92210
H     -1.54202     3.56369     2.34994
H     -2.20964     2.09604     2.56238
N     -0.25828     2.33584    -1.23014
H     -0.81780     2.71932    -0.47529
H      0.60007     1.99452    -0.80794
H     -0.01602     3.11033    -1.83275
N      2.25706     0.35647    -0.61018
H      3.14951     0.31440    -1.08088
H      2.22838    -0.37722     0.08391
H      1.54367     0.11185    -1.28428
N      2.23124    -3.01831    -0.11928
H      2.31988    -4.02130    -0.00832
H      1.72297    -2.85876    -0.99035
H      3.16819    -2.65513    -0.25091
N     -3.54759     1.51542    -0.80320
H     -3.05728     1.81667     0.03218
H     -2.90466     1.68381    -1.56543
H     -4.33438     2.13550    -0.93575
N     -1.02135    -0.56816    -0.81760
H     -0.64357    -0.57059     0.12659
H     -0.91007     0.38695    -1.16195
H     -2.02007    -0.71488    -0.73741
N      0.40132    -2.01155     1.98686
H      1.07310    -2.38842     1.31328
H      0.40291    -2.61192     2.80146
H     -0.50980    -2.12263     1.55743
N      1.03012     1.30123     2.19288
H      0.89443     0.29966     2.31286
H      1.70285     1.40972     1.44162
H      1.47450     1.63757     3.03697
N      0.36283    -2.52730    -2.60380
H      0.46440    -2.15290    -3.53956
H     -0.24587    -3.33418    -2.68016
H     -0.14334    -1.83378    -2.04340
