 28
-396.2167861490923
N      1.11536    -1.47852     1.37853
H      0.15397    -1.59731     1.06467
H      1.69539    -1.53294     0.54471
H      1.33934    -2.28269     1.95282
N      0.29747     0.31698    -3.31216
H      0.26952     0.76440    -2.38961
H      1.02313     0.78422    -3.84631
H     -0.57474     0.52026    -3.78902
N      2.41624    -1.64871    -1.77924
H      1.65802    -1.22031    -2.30536
H      3.24813    -1.11059    -1.98587
H      2.56319    -2.57209    -2.16821
N      0.11935     0.68896     3.21409
H      0.56133    -0.00275     2.60762
H      0.85751     1.24025     3.63631
H     -0.31893     0.17405     3.97076
N     -1.69725    -1.26018    -0.47185
H     -2.43016    -1.84175    -0.84968
H     -2.12841    -0.41409    -0.12420
H     -1.11173    -0.97898    -1.24812
N      0.26229     1.51687    -0.60162
H      0.79270     2.37837    -0.58660
H     -0.67685     1.74704    -0.29574
H      0.66063     0.90959     0.10521
N     -2.51679     1.82128     1.52656
H     -1.65589     1.57496     2.01129
H     -2.73304     2.78088     1.76735
H     -3.24273     1.24537     1.93574
