 36
-509.4301514722126
N      0.68720     2.93244     0.31176
H      1.66352     2.82062     0.04592
H      0.50365     3.92415     0.38242
H      0.56385     2.54414     1.23985
N     -1.09489     0.56881    -1.20519
H     -1.54360     0.20309    -0.37208
H     -1.83074     0.88466    -1.82351
H     -0.55443     1.38860    -0.93511
N      3.53190     2.14905    -0.78371
H      3.06482     1.23998    -0.81862
H      3.63525     2.45524    -1.74441
H      4.46392     1.99921    -0.41633
N     -0.02890    -2.74198     0.44331
H     -0.96466    -2.48710     0.74882
H      0.01194    -2.59865    -0.55858
H      0.09022    -3.73089     0.61007
N      0.45036    -0.18822     1.87330
H      0.39966    -1.08570     1.37789
H      1.09117     0.40670     1.35821
H      0.87645    -0.35506     2.77868
N     -3.13599    -1.76849     1.46019
H     -3.32752    -2.23592     2.33863
H     -3.93730    -1.93198     0.86352
H     -3.10260    -0.77132     1.65920
N     -0.17757    -1.55247    -3.17673
H     -0.42875    -0.80453    -2.53031
H      0.04212    -1.11921    -4.06680
H     -1.01166    -2.10546    -3.33210
N     -2.22214     1.18101     1.97944
H     -2.33553     1.70063     2.84066
H     -2.05888     1.85643     1.24264
H     -1.36584     0.61974     2.04951
N      2.11265    -0.50082    -0.94270
H      2.27445    -1.18685    -0.21839
H      1.13320    -0.24508    -0.88309
H      2.22661    -0.96424    -1.83415
