 20
-283.0084322177651
N     -0.80149     0.07090    -2.49019
H     -0.86469     0.00573    -3.49932
H     -1.19042     0.96973    -2.22396
H      0.18526     0.11083    -2.24165
N      2.25476     0.33731    -1.39481
H      3.12802     0.68120    -1.77300
H      2.43660    -0.57750    -0.99683
H      2.00355     0.93702    -0.61300
N     -0.29967    -0.88198     2.52769
H      0.31772    -1.67401     2.64983
H     -0.93749    -0.87641     3.31309
H     -0.85420    -1.06299     1.69528
N     -2.32140    -1.54003    -0.13277
H     -3.23267    -1.09732    -0.14221
H     -1.78264    -1.11948    -0.88728
H     -2.46435    -2.51332    -0.37598
N      1.22080     2.01024     1.41082
H      0.69600     1.17776     1.66501
H      1.83712     2.21451     2.18689
H      0.55430     2.76846     1.35081
