 24
-339.6123252583369
N     -0.49120    -2.70062     1.93051
H     -0.77891    -3.39237     1.24815
H     -1.03578    -2.85820     2.77030
H     -0.77115    -1.79398     1.55799
N      1.28877     1.72264     1.02063
H      0.45270     1.88376     1.57077
H      1.57223     0.75840     1.22012
H      2.00035     2.33852     1.39714
N      0.80448     1.75678    -2.34207
H      0.86179     2.73449    -2.59349
H      0.99545     1.70055    -1.34604
H      1.56784     1.28384    -2.80742
N     -2.21100     0.11419    -2.82972
H     -2.83371     0.77823    -3.27140
H     -1.34368     0.61017    -2.64019
H     -1.99576    -0.59757    -3.51606
N     -1.60446     0.03047     0.57542
H     -2.33471     0.60479     0.97651
H     -0.81652     0.63626     0.36899
H     -1.95862    -0.27942    -0.32509
N      2.15746    -1.03569     1.70881
H      2.63085    -0.97617     2.60261
H      1.39288    -1.69924     1.81905
H      2.81801    -1.43705     1.05307
