 40
-566.0352541894924
N     -2.16664    -2.59580    -1.29294
H     -2.03840    -2.66128    -2.29779
H     -2.69094    -1.72876    -1.10988
H     -2.74568    -3.38592    -1.03103
N     -1.34898    -0.60741     1.35432
H     -0.88490    -0.69490     0.45858
H     -0.77808    -1.10277     2.03136
H     -2.20692    -1.12830     1.23818
N     -1.63079     1.97441    -1.53727
H     -0.90360     1.57239    -2.12374
H     -1.95947     2.81207    -1.99816
H     -1.16450     2.25757    -0.68322
N      2.25438     2.77474     0.50793
H      2.09149     3.59182    -0.06798
H      1.36762     2.55514     0.95477
H      2.88845     3.05857     1.24424
N      1.33256    -1.04894     3.17317
H      0.94235    -0.18666     2.81541
H      1.88133    -0.80628     3.98646
H      1.97717    -1.35816     2.45278
N     -0.51340     2.15478     1.99147
H     -0.89254     1.23922     1.72360
H     -0.25900     2.09035     2.97340
H     -1.28169     2.81701     1.96277
N      3.17978    -0.90641     0.33947
H      2.73267    -1.15054    -0.53367
H      2.94448     0.06527     0.50687
H      4.17720    -0.94518     0.18805
N      0.87032    -2.56339    -1.41690
H      1.33185    -2.69955    -0.52581
H     -0.12844    -2.52869    -1.21862
H      1.04001    -3.40378    -1.95422
N     -3.60853    -0.08924    -0.78481
H     -2.90813     0.60586    -1.07372
H     -4.45551     0.08643    -1.31457
H     -3.82011     0.13133     0.18317
N      1.32824     0.73214    -2.56604
H      1.97082     0.74885    -3.34365
H      1.14510    -0.24038    -2.34710
H      1.80692     1.12775    -1.76730
