 24
-339.6135680461643
N      1.75503    -1.67803     2.50147
H      0.77846    -1.39628     2.52923
H      1.77567    -2.68338     2.39009
H      2.14876    -1.46684     3.40952
N     -1.48221    -0.62957     2.52450
H     -1.80010    -0.01181     3.26133
H     -1.51794    -0.10318     1.65557
H     -2.17284    -1.36522     2.44231
N      0.12469    -1.39939    -2.02309
H      0.55061    -1.91484    -2.78174
H      0.83174    -0.77685    -1.64575
H     -0.05815    -2.06291    -1.27970
N     -0.07535     2.02845    -2.79200
H     -0.40932     1.11009    -3.05452
H      0.25902     2.47560    -3.63455
H      0.72976     1.86045    -2.20221
N     -1.89836     0.79345    -0.27223
H     -2.91023     0.77280    -0.23252
H     -1.64110     1.64547    -0.75658
H     -1.60596     0.03436    -0.87967
N      1.65783     0.84414     0.09002
H      2.22969     1.62495     0.38358
H      0.70736     1.06221     0.36782
H      1.93692     0.06031     0.67048
