 24
-339.61573526263317
N     -0.03033    -1.57924     1.81265
H      0.67522    -0.85315     1.83750
H      0.19606    -2.23449     2.54754
H      0.10574    -2.06371     0.93198
N      0.09564     1.72484     1.63437
H      0.00631     2.38015     2.39749
H     -0.34065     2.15155     0.82294
H     -0.46544     0.91332     1.86629
N      0.87892    -1.89474    -1.41259
H      1.61743    -1.37042    -0.94918
H      1.27190    -2.28110    -2.26071
H      0.19115    -1.20061    -1.67982
N     -1.63047     2.27832    -1.27116
H     -1.14072     2.36303    -2.15181
H     -1.81701     1.29069    -1.12433
H     -2.52465     2.74061    -1.36953
N     -2.29410    -0.99764    -0.51356
H     -1.86636    -1.76584    -1.01314
H     -1.84461    -0.98180     0.39768
H     -3.26313    -1.24337    -0.36449
N      2.85139     0.47629     0.08235
H      3.58808     0.37030     0.76715
H      3.19619     1.10140    -0.63503
H      2.08293     0.95852     0.54027
