 24
-339.6147667348317
N     -1.06343    -3.16099    -0.47143
H     -0.15991    -2.69646    -0.51781
H     -0.91411    -4.04701    -0.00574
H     -1.34210    -3.36175    -1.42313
N      1.21047     2.31934    -1.22104
H      0.24448     2.06763    -1.40495
H      1.17412     3.15966    -0.65765
H      1.63374     2.57092    -2.10297
N      1.79598    -1.27529    -0.39474
H      1.61236    -0.47700    -0.98798
H      1.81021    -0.91401     0.55156
H      2.73056    -1.59432    -0.60233
N     -2.11501     1.54694    -1.25873
H     -2.45160     0.84244    -1.90318
H     -1.92054     1.05638    -0.39140
H     -2.88209     2.17961    -1.07393
N     -1.49721    -0.29326     1.57050
H     -0.50932    -0.28306     1.79629
H     -2.00224    -0.42625     2.43583
H     -1.64465    -1.12965     1.01334
N      1.50365     1.21803     1.92836
H      1.73593     1.43541     0.96522
H      0.55013     1.53313     2.05372
H      2.09449     1.77914     2.52525
