 24
-339.6078501123294
N      0.00854     0.02905    -0.80447
H     -0.74588     0.27815    -1.43094
H     -0.34365    -0.02339     0.14300
H      0.70574     0.76349    -0.83565
N      1.65718     2.70651     0.81563
H      2.65257     2.88881     0.79077
H      1.22600     3.46200     1.33265
H      1.52675     1.86160     1.36627
N      1.41391    -2.84392    -1.91792
H      0.98508    -1.97327    -1.62267
H      2.09346    -2.61347    -2.63150
H      0.69130    -3.39498    -2.36307
N     -2.62028     1.94453    -1.78611
H     -3.48089     2.07236    -1.27105
H     -1.86599     2.12176    -1.13589
H     -2.56978     2.66663    -2.49242
N     -1.90977    -1.71775     1.44115
H     -1.83656    -2.71368     1.59818
H     -2.86812    -1.45140     1.62126
H     -1.74411    -1.57575     0.45409
N      1.29283    -0.34666     2.25451
H      0.39113    -0.69716     2.54951
H      1.49609    -0.80669     1.37454
H      1.97901    -0.66992     2.92188
