 24
-339.609373444313
N     -1.86371    -1.00928     0.37055
H     -1.44013    -1.88685     0.65779
H     -1.51157    -0.29646     0.99721
H     -2.85849    -1.07984     0.53891
N      2.53247     2.82106     0.09692
H      3.20280     2.06229     0.05702
H      1.65973     2.46906    -0.29594
H      2.87314     3.54976    -0.51885
N     -0.58465    -2.74372    -2.58719
H      0.14678    -2.39619    -3.19323
H     -1.36015    -3.02029    -3.17295
H     -0.90384    -1.96376    -2.02647
N     -0.32198     1.85022    -0.56491
H     -0.69153     0.90665    -0.58993
H     -0.36515     2.20126     0.39052
H     -0.93039     2.42596    -1.13212
N     -0.31081    -4.05062     0.61613
H     -0.27511    -3.96889    -0.39511
H      0.64646    -4.05351     0.94149
H     -0.70973    -4.95484     0.82900
N      0.32999     3.11967     2.34311
H      1.16126     3.10939     1.75593
H      0.15508     4.08251     2.60159
H      0.56082     2.62274     3.19410
