 24
-339.61046276706355
N      0.05826    -1.89966     2.19049
H     -0.57180    -1.48413     2.87010
H      0.78706    -1.20290     1.99825
H      0.50343    -2.68860     2.64825
N      0.90727     2.67825     0.73570
H      0.34020     2.44491    -0.08423
H      0.26783     2.94788     1.47632
H      1.46188     3.49663     0.50938
N     -0.68045    -0.66467    -2.62131
H     -1.18164    -0.99890    -3.43738
H     -0.96055    -1.24083    -1.82333
H      0.30550    -0.84410    -2.78427
N     -0.89958     2.17893    -1.66010
H     -0.75542     2.77110    -2.47142
H     -1.85704     2.32471    -1.35511
H     -0.83123     1.20409    -1.97074
N     -1.61511    -2.45020    -0.32317
H     -1.65397    -3.45835    -0.42523
H     -2.54560    -2.14058    -0.06224
H     -0.99482    -2.23710     0.46191
N      2.22572     0.09433     1.67725
H      2.82760    -0.26493     0.94318
H      1.76206     0.92878     1.30777
H      2.82762     0.38800     2.43891
