 40
-566.0373271807562
N     -2.90336    -2.55287     0.73202
H     -3.25000    -2.02327    -0.05667
H     -3.70210    -2.81073     1.29356
H     -2.36120    -1.89863     1.28099
N     -0.30427    -0.31650     2.20467
H     -0.53730    -0.22822     3.18552
H      0.64159     0.04334     2.09374
H     -0.89897     0.33982     1.70679
N     -2.50617     1.25718    -0.02069
H     -1.98529     1.97893    -0.50660
H     -2.36218     0.40226    -0.55066
H     -3.48414     1.49944    -0.09002
N      1.40965    -2.14068    -2.00329
H      0.95332    -2.40889    -1.11570
H      0.98298    -2.68250    -2.74605
H      2.37625    -2.43978    -1.94934
N      0.21488    -2.91083     0.55279
H      0.90188    -3.41469     1.10079
H      0.02508    -2.04120     1.05728
H     -0.64278    -3.45132     0.58650
N     -0.32618     3.64881     1.37496
H      0.05167     3.44720     0.45418
H     -1.19198     3.13275     1.44875
H     -0.54723     4.63281     1.40534
N      3.11123     0.36276    -1.18491
H      4.00397     0.23980    -1.64177
H      3.21549     0.07859    -0.22048
H      2.44862    -0.29177    -1.59087
N     -1.50769    -1.24598    -2.01568
H     -1.89255    -1.43659    -2.93038
H     -0.51103    -1.09979    -2.13289
H     -1.58166    -2.09641    -1.47219
N      2.18088     1.50460     1.87802
H      2.94820     1.89817     2.40758
H      2.37045     1.68412     0.89720
H      1.36151     2.06386     2.09889
N      0.34380     2.21326    -1.66435
H     -0.26763     1.40655    -1.64349
H      1.28318     1.84213    -1.56999
H      0.27256     2.60285    -2.59218
