 24
-339.60658604665724
N      0.48905    -2.91814     1.43243
H      0.31362    -3.91373     1.40370
H     -0.01423    -2.50436     0.66027
H      1.47362    -2.77550     1.25093
N      2.23538     0.32338    -3.04977
H      3.08153    -0.17023    -2.79603
H      1.45169    -0.27797    -2.81271
H      2.24233     0.42784    -4.05624
N     -0.35317    -1.74815    -2.26308
H     -0.09092    -2.65506    -1.90029
H     -0.83912    -1.25738    -1.51914
H     -1.01726    -1.90149    -3.00969
N     -0.66311     2.63382     0.06133
H     -1.11228     3.37453    -0.45913
H     -0.17551     3.04815     0.84621
H      0.03828     2.22530    -0.54753
N     -1.63379    -0.52652     0.67604
H     -1.37843     0.44366     0.51591
H     -2.59682    -0.53737     0.98425
H     -1.07166    -0.87865     1.44128
N     -0.34078     2.48935     3.28981
H     -0.99879     2.75565     4.01086
H      0.30388     1.82429     3.69706
H     -0.86347     1.98718     2.58295
