 28
-396.2181530025565
N      0.87451     0.94175    -3.36167
H      1.86342     0.90168    -3.57064
H      0.43135     1.49852    -4.08052
H      0.77162     1.44513    -2.48596
N      2.36675     0.31213     1.34251
H      3.15158     0.08378     1.93513
H      1.51500     0.11828     1.85267
H      2.36086    -0.32798     0.56102
N     -1.09674    -0.33298     2.63537
H     -1.64717     0.04812     1.86777
H     -1.73758    -0.84025     3.23548
H     -0.78221     0.46425     3.17711
N     -2.52264     0.65883     0.01435
H     -1.96018    -0.10432    -0.38241
H     -3.50166     0.44242    -0.13446
H     -2.31594     1.46964    -0.55661
N     -0.84164    -1.33379    -1.36430
H     -1.47889    -1.88166    -1.92754
H     -0.27922    -0.79697    -2.01892
H     -0.21834    -1.98649    -0.90194
N      0.35245     2.43793    -0.37521
H      0.20490     3.41997    -0.19102
H     -0.36884     1.93075     0.12585
H      1.22708     2.17606     0.06655
N      0.82185    -2.82422     1.08097
H      1.69345    -2.54116     1.50540
H      0.14590    -2.11044     1.33600
H      0.53309    -3.68038     1.53293
