 24
-339.6075094463184
N      1.28057    -0.86756     1.97984
H      0.98888     0.10520     2.01360
H      0.80119    -1.36654     2.71816
H      2.27103    -0.90365     2.18699
N      0.05576     1.98259     1.03529
H     -0.81428     2.18410     1.50957
H      0.51941     2.86395     0.86516
H     -0.18697     1.58234     0.13717
N      0.35798    -0.61354    -0.98860
H      1.20106    -0.19531    -1.36546
H      0.51086    -0.74581     0.01150
H      0.29332    -1.53500    -1.40725
N     -3.13280     1.12433     0.32603
H     -3.39902     0.65082    -0.52873
H     -2.73022     2.01345     0.06370
H     -2.40259     0.57299     0.75502
N     -2.48211    -0.56344    -2.48609
H     -1.65159    -0.42378    -1.91760
H     -2.26692    -0.23725    -3.41983
H     -2.64572    -1.56074    -2.54236
N      4.12472    -1.14336     0.27470
H      3.12806    -0.97551     0.22739
H      4.57403    -0.45908    -0.31932
H      4.28979    -2.05610    -0.12851
