 40
-566.0367168851311
N     -0.42355    -2.79921    -0.67627
H     -0.63870    -3.64627    -0.17352
H     -1.19616    -2.16054    -0.53598
H      0.36611    -2.36947    -0.21196
N     -2.08315     1.38475     0.35377
H     -2.75980     2.03461     0.72831
H     -1.63620     1.83026    -0.43721
H     -2.59408     0.59123    -0.01979
N     -1.38230     1.51420    -3.11023
H     -0.51445     1.58181    -2.56254
H     -1.19727     0.85123    -3.85746
H     -1.54214     2.40611    -3.56375
N      0.63199     1.81140     1.42095
H     -0.34362     1.58647     1.19869
H      0.77256     1.69253     2.41970
H      0.77218     2.79330     1.21700
N      0.62805     1.01445     4.73283
H     -0.11180     1.23547     5.38614
H      0.25418     0.33106     4.07919
H      1.36479     0.55055     5.24726
N     -0.31035    -1.10744     2.36156
H     -0.93269    -0.60797     1.73813
H      0.57116    -1.19379     1.86244
H     -0.68849    -2.04020     2.45591
N      2.48312    -0.75742     0.68092
H      2.69158    -0.55922    -0.28742
H      1.91802     0.02353     1.00331
H      3.35224    -0.70828     1.19345
N      1.99500    -1.64030    -2.51368
H      2.62817    -2.08846    -1.86481
H      1.07005    -1.97593    -2.26741
H      2.21191    -1.98397    -3.43791
N     -2.88596    -0.90743    -1.92448
H     -2.47667    -0.02250    -2.22371
H     -2.27421    -1.63971    -2.25935
H     -3.76978    -1.01826    -2.40362
N      1.07294     1.60066    -1.49804
H      1.77228     2.26279    -1.80793
H      1.38700     0.68980    -1.81418
H      1.05043     1.58626    -0.47712
