 40
-566.0297777353079
N     -3.68369    -0.94025    -1.53646
H     -3.75288    -0.36594    -0.70046
H     -4.60823    -1.28009    -1.75943
H     -3.40006    -0.32015    -2.28499
N     -1.51861    -2.00959     1.95590
H     -2.10624    -2.23551     2.74569
H     -1.86269    -1.13690     1.57485
H     -1.71374    -2.70763     1.25310
N     -0.47631     0.86608     0.04864
H     -0.59700     0.34640    -0.81048
H     -0.14280     1.78101    -0.22359
H      0.27274     0.42524     0.56452
N      2.38021     2.70569    -1.03474
H      2.23556     2.50015    -0.04713
H      3.37960     2.69163    -1.19302
H      2.07954     3.65886    -1.19916
N      2.20212     1.97805     2.03279
H      1.74763     2.62218     2.67328
H      1.87670     1.03541     2.27489
H      3.18874     1.99685     2.27607
N      1.60768    -0.85185     2.62113
H      0.69270    -1.29443     2.62593
H      2.07932    -1.18786     1.78554
H      2.11729    -1.19941     3.42295
N      2.34808    -1.09417    -0.57086
H      1.58354    -1.46033    -1.12499
H      2.37610    -0.10144    -0.76520
H      3.20112    -1.48043    -0.94870
N     -0.61251    -2.35796    -1.34902
H     -0.27396    -2.30067    -0.39652
H     -1.57939    -2.04949    -1.34056
H     -0.59046    -3.32723    -1.63018
N     -3.30565     1.12235     0.97831
H     -2.31836     1.10043     0.72066
H     -3.67905     1.99873     0.62976
H     -3.34932     1.16883     1.98957
N      0.79354     0.43177    -3.21443
H      1.61414    -0.05509    -3.54438
H      0.24511    -0.26194    -2.72668
H      1.12260     1.09487    -2.52423
