 36
-509.4253235696744
N     -0.78507    -1.60507    -1.03555
H     -0.04919    -1.30582    -0.40449
H     -0.52056    -2.51977    -1.37628
H     -0.74258    -0.98599    -1.83881
N      1.51102     2.12404     2.85601
H      1.47089     1.11970     2.96532
H      1.07700     2.52338     3.67634
H      0.89978     2.32409     2.07370
N      3.43655    -0.62811    -2.41583
H      3.05304    -0.35111    -1.51233
H      3.67024    -1.61106    -2.34329
H      4.30752    -0.12395    -2.53359
N      2.37062     0.16542     0.30568
H      3.13260     0.63775     0.77630
H      1.61479     0.84613     0.25906
H      2.05481    -0.56473     0.93617
N     -3.46333    -2.03648     0.15410
H     -4.15058    -1.92590    -0.58287
H     -2.54928    -1.85278    -0.26685
H     -3.49620    -3.00933     0.43568
N     -0.31013     1.83655    -0.25235
H      0.01984     1.31446    -1.05358
H     -1.06457     1.29342     0.15421
H     -0.70498     2.70042    -0.59359
N      0.56213     0.52580    -3.37238
H      0.67349     1.51549    -3.19173
H      1.47379     0.10340    -3.20903
H      0.35394     0.43470    -4.35783
N     -0.16723    -1.14525     2.23260
H     -0.76782    -0.33582     2.33651
H     -0.67778    -1.76521     1.61705
H     -0.13535    -1.60139     3.13299
N     -3.06121     0.80272     1.43084
H     -3.33211     1.40413     0.66172
H     -3.32637    -0.14199     1.16216
H     -3.62570     1.07629     2.22534
