 36
-509.42770422607765
N      0.96955    -0.62814    -1.71575
H      1.20546    -0.72805    -2.69598
H      0.62602    -1.53338    -1.40351
H      0.19099     0.02102    -1.69108
N      0.30014     2.15945     0.19914
H     -0.08302     1.48705     0.85249
H      1.24371     1.84291     0.00346
H      0.37744     3.03749     0.69430
N      3.25335     0.41817    -0.24373
H      3.87578    -0.35835    -0.04505
H      2.44007     0.01968    -0.73396
H      3.74907     1.00819    -0.90348
N      2.40890     0.40618     3.02361
H      3.14076    -0.21523     3.34365
H      2.54974     0.53392     2.02374
H      2.56807     1.30179     3.46538
N     -2.77014     0.69208     1.32614
H     -1.99420     0.07249     1.57603
H     -2.36446     1.55829     0.99545
H     -3.29072     0.90804     2.16652
N     -0.48336    -1.06451     2.02662
H      0.26905    -0.60349     2.52979
H     -0.77349    -1.84985     2.59540
H     -0.08356    -1.43768     1.17068
N     -0.72291     2.05928    -2.69335
H      0.05611     2.31321    -3.28954
H     -1.46699     2.71639    -2.89206
H     -0.41848     2.21052    -1.73410
N     -0.58019    -3.08555    -0.57514
H     -0.78057    -3.37576     0.37439
H     -1.27611    -2.36309    -0.81899
H     -0.74434    -3.89242    -1.16748
N     -2.50159    -1.01889    -1.33421
H     -2.86169    -0.53975    -0.51171
H     -2.09700    -0.30406    -1.92983
H     -3.29586    -1.39023    -1.83872
