 24
-339.61395542053555
N      2.28771    -1.05791    -1.10382
H      2.63218    -0.39781    -0.41764
H      2.83212    -0.94361    -1.94734
H      1.34273    -0.76350    -1.31458
N     -0.08431     2.37148     0.98977
H     -0.60728     2.29364     0.11705
H     -0.42804     3.18793     1.48036
H      0.88059     2.56389     0.74921
N     -0.15739    -3.08823    -0.59142
H     -0.32856    -3.55149    -1.47513
H      0.77300    -2.68639    -0.63899
H     -0.13254    -3.81223     0.11578
N     -1.86858     1.93076    -1.39922
H     -2.66667     2.55588    -1.37418
H     -1.70790     1.70101    -2.37263
H     -2.13100     1.07165    -0.90941
N     -2.22582    -0.45369     0.30324
H     -1.72370    -1.28045    -0.00601
H     -1.58484     0.08560     0.87198
H     -2.98914    -0.75312     0.89332
N      2.24023     0.43397     1.86488
H      2.10522    -0.54882     1.66153
H      2.55113     0.50065     2.82652
H      1.32226     0.86566     1.80242
