 24
-339.6112235878215
N      2.04022    -2.07592    -1.56943
H      2.40680    -1.33327    -2.15011
H      2.42802    -1.92783    -0.64276
H      2.42841    -2.94338    -1.91302
N     -2.35379     2.68699     1.88919
H     -2.46726     3.69066     1.84676
H     -2.29640     2.35796     0.93265
H     -3.19769     2.29291     2.28224
N     -1.15735    -1.40464    -0.53362
H     -1.80206    -2.17981    -0.46004
H     -0.27870    -1.76869    -0.89247
H     -0.97101    -1.08574     0.40794
N     -2.10221     0.98089    -2.73981
H     -1.39821     1.13773    -3.44998
H     -1.74660     0.25659    -2.12174
H     -2.91331     0.59871    -3.20913
N      0.60621     0.98085     1.29825
H      0.18070     0.72193     0.41714
H     -0.10558     1.42587     1.86335
H      1.29782     1.68821     1.08391
N      3.03894    -1.30434     1.67602
H      2.26854    -0.64260     1.70853
H      2.85205    -2.01022     2.37636
H      3.87524    -0.80856     1.95611
