 28
-396.21783971477396
N      3.00164     0.57945    -0.50891
H      2.14101     0.72483    -1.04818
H      3.49381     1.46392    -0.45636
H      3.58852    -0.03781    -1.06076
N      0.50541     1.11030    -1.99833
H      0.73026     1.70403    -2.78639
H      0.09735     0.25937    -2.37521
H     -0.22548     1.57818    -1.47762
N     -0.08843    -0.95501     3.39661
H      0.63903    -1.11339     4.08271
H     -0.85793    -1.57213     3.62296
H      0.27999    -1.25819     2.49779
N     -1.65124    -1.44847    -2.26524
H     -2.32254    -1.55540    -3.01556
H     -1.73967    -2.26515    -1.67139
H     -1.94428    -0.65172    -1.70074
N     -2.60779     0.91507    -0.24855
H     -3.17826     0.30390     0.32993
H     -1.78949     1.16804     0.31696
H     -3.15995     1.75449    -0.38651
N     -0.22831     1.70520     1.32238
H     -0.30886     1.08947     2.12770
H      0.64962     1.47067     0.87140
H     -0.13261     2.64553     1.68206
N      1.08922    -1.90761     0.34999
H      1.54118    -2.78337     0.12360
H      0.45077    -1.70891    -0.40817
H      1.80183    -1.18298     0.30447
