 36
-509.4284606736689
N      3.05401     1.59454     1.67471
H      3.30879     0.70899     1.23779
H      3.03582     1.44285     2.67711
H      3.80325     2.25375     1.49721
N      0.48123     2.75813     0.76995
H      0.25074     3.29533     1.59820
H      1.35851     2.26722     0.97235
H      0.69209     3.43695     0.04475
N      3.11522    -1.01992     0.15260
H      2.62090    -0.40562    -0.50628
H      3.83098    -1.51393    -0.36651
H      2.43806    -1.71573     0.44607
N     -2.08493     1.55686    -0.96553
H     -1.39450     1.84460    -0.27969
H     -2.62595     2.37337    -1.21343
H     -2.71581     0.92211    -0.48811
N     -4.08042    -0.81758     0.76433
H     -3.31639    -1.44592     0.53670
H     -4.93674    -1.26773     0.47223
H     -4.10104    -0.74589     1.77259
N     -1.31884    -2.75166    -0.00482
H     -0.79488    -2.34228     0.76308
H     -1.23265    -3.75614     0.06877
H     -0.82922    -2.46141    -0.84088
N     -1.11809    -0.95686    -3.00642
H     -1.28109    -0.08054    -2.51522
H     -1.43267    -0.82882    -3.95962
H     -1.75085    -1.61661    -2.57289
N      1.58177     0.60365    -1.80414
H      0.92203     1.23038    -1.36036
H      1.02129    -0.10336    -2.27318
H      2.06388     1.12445    -2.52563
N      0.46038    -0.92924     2.27588
H      1.45488    -0.78904     2.16874
H      0.03636    -0.11775     1.84618
H      0.24439    -0.88688     3.26033
