 24
-339.61375752555506
N      0.29416    -2.57216    -0.82797
H      0.81446    -3.26916    -1.34196
H      0.68151    -2.53688     0.10941
H     -0.65159    -2.91865    -0.72878
N      0.69488     1.08876     1.74518
H      1.53289     1.23276     1.19414
H     -0.06918     1.20399     1.09085
H      0.64386     1.84605     2.41248
N      1.50063    -2.15656     2.42545
H      2.49798    -2.20231     2.58620
H      1.26434    -1.17570     2.30907
H      1.04118    -2.47814     3.26673
N     -2.93701     2.68164    -1.48538
H     -3.24904     3.39306    -0.83583
H     -2.06898     2.30136    -1.12662
H     -2.72822     3.14123    -2.36332
N     -1.41057     0.23847    -0.49240
H     -0.87056    -0.44575    -1.00942
H     -1.48843    -0.12914     0.44709
H     -2.33820     0.29858    -0.88801
N      1.73674     0.78893    -1.49035
H      0.76671     1.07038    -1.41395
H      2.01661     0.92885    -2.45048
H      1.74725    -0.20654    -1.31205
