 36
-509.428191926038
N      0.73364     1.19458    -2.13055
H      0.18175     2.02979    -1.96209
H      1.31094     1.40412    -2.94037
H      0.08615     0.45167    -2.40969
N     -2.63058     0.45595     1.66242
H     -1.78719     0.08267     1.21667
H     -2.37820     0.65648     2.62463
H     -3.30012    -0.30597     1.71137
N      3.42021    -1.23785     2.16468
H      4.32373    -1.68714     2.07958
H      3.25030    -0.74274     1.29117
H      3.50833    -0.53415     2.88777
N      2.98164     0.28069    -0.51439
H      2.10422     0.57068    -0.97019
H      3.58945     1.09435    -0.48220
H      3.43299    -0.38209    -1.13858
N     -0.88296     3.04892     0.10780
H     -0.27946     3.68188     0.61358
H     -1.67130     2.84247     0.70706
H     -0.37968     2.17356     0.02051
N      0.71657    -3.34258     2.45145
H      1.03646    -4.25832     2.16219
H      1.48609    -2.69985     2.28010
H      0.58526    -3.37335     3.45438
N     -1.37170    -0.89076    -2.64634
H     -1.95461    -0.10543    -2.33120
H     -1.78656    -1.28401    -3.48216
H     -1.44684    -1.59669    -1.92214
N     -0.14034    -0.76488     0.50593
H     -0.24750    -1.66285     0.96729
H      0.09657    -0.93351    -0.46197
H      0.67788    -0.33284     0.91539
N     -3.01598     1.30594    -1.60638
H     -2.57319     2.21529    -1.66904
H     -3.93912     1.38509    -2.01368
H     -3.12929     1.11491    -0.61433
