 36
-509.4255562294927
N      3.08833    -0.49861    -1.27813
H      3.91499    -0.15626    -0.79870
H      2.43651     0.29785    -1.33669
H      3.38852    -0.73310    -2.21801
N     -0.02566     1.99138     1.69316
H      0.09909     2.75429     2.34810
H     -1.00524     1.99907     1.43077
H      0.12395     1.10730     2.19003
N     -1.30219     1.89532    -2.94181
H     -1.56590     2.87061    -2.86923
H     -1.15209     1.69998    -3.92371
H     -2.10085     1.34557    -2.63586
N      2.58200    -2.09120     1.26436
H      3.31677    -1.67487     1.82551
H      2.85244    -3.05440     1.10569
H      2.58795    -1.60797     0.36304
N     -0.31653    -0.55376    -0.22766
H     -0.09836     0.30544     0.27421
H      0.21598    -0.53772    -1.08838
H      0.04185    -1.32717     0.32089
N     -3.19670    -0.06871    -1.35989
H     -3.71662     0.19453    -0.53400
H     -3.44805    -1.02576    -1.57136
H     -2.21801    -0.09379    -1.07893
N     -2.57180    -1.96428     1.34708
H     -1.93380    -1.54278     0.67906
H     -2.55497    -2.96549     1.19771
H     -3.49814    -1.64541     1.09820
N      0.27388    -0.65730     2.94850
H      0.53191    -0.74373     3.92423
H      0.98154    -1.15213     2.40451
H     -0.60399    -1.15385     2.83445
N      1.32524     1.85884    -1.45676
H      1.15005     2.12644    -0.49072
H      1.79145     2.64610    -1.89239
H      0.40902     1.76812    -1.90285
