 28
-396.21716345415535
N      2.60052    -1.98710    -0.99502
H      2.29609    -2.39943    -1.86858
H      3.06114    -1.11133    -1.23350
H      3.31366    -2.59942    -0.61819
N      3.54777     1.01121    -1.65423
H      2.55203     1.12299    -1.46116
H      4.04761     1.53697    -0.94643
H      3.73537     1.45306    -2.54664
N      0.08855    -1.13748     1.16544
H      0.18186    -1.61176     2.05608
H      0.90149    -1.39327     0.60865
H      0.16102    -0.14454     1.35349
N     -3.43218     0.64807     0.77602
H     -3.20638    -0.24657     0.34615
H     -4.03548     0.44437     1.56584
H     -3.98588     1.17475     0.10988
N     -2.38425    -2.12621    -0.21431
H     -1.53911    -1.75321     0.22906
H     -2.55383    -3.04263     0.18461
H     -2.17348    -2.26591    -1.19752
N     -0.93386     2.16320     1.95537
H     -1.20878     3.12911     2.09380
H     -1.72328     1.67616     1.53316
H     -0.81594     1.76281     2.87947
N      0.57771     1.43060    -1.08941
H      0.03157     1.84007    -1.83615
H      0.19843     0.50302    -0.94133
H      0.36256     1.95230    -0.24612
