 24
-339.6080060396093
N      2.97599    -0.67163    -0.46474
H      3.87989    -0.27139    -0.25337
H      2.33283     0.09401    -0.62210
H      2.64156    -1.16107     0.35707
N     -1.92210     3.91952     1.67352
H     -2.79660     4.09800     1.19634
H     -1.20507     4.44444     1.18902
H     -1.70812     2.93296     1.55485
N      0.76412    -1.59874    -2.84940
H      1.13673    -1.31025    -3.74609
H      1.52847    -1.54557    -2.18236
H      0.51297    -2.57706    -2.93075
N     -1.72723     0.11213    -1.57974
H     -1.61334     1.09618    -1.79791
H     -0.95620    -0.38546    -2.01732
H     -2.58833    -0.19268    -2.01599
N     -1.19923     0.62095     1.55498
H     -1.28669     0.28817     0.59953
H     -0.27260     0.40215     1.89382
H     -1.87400     0.13921     2.13479
N      1.13476    -2.32789     1.90062
H      1.12305    -2.28419     2.91025
H      0.30028    -1.86484     1.56577
H      1.04731    -3.30016     1.63695
