 24
-339.60953389175677
N      1.06074    -3.13139     1.76654
H      0.77209    -3.30267     2.71994
H      2.04670    -2.90549     1.77292
H      0.59657    -2.29011     1.44989
N      0.49607     1.92524     0.36720
H      0.07786     2.43895     1.13409
H      0.87710     2.62090    -0.26464
H     -0.27557     1.48686    -0.13223
N      1.04268    -1.62445    -1.09210
H      1.46401    -1.55494    -2.01206
H      1.75521    -1.35264    -0.41484
H      0.85499    -2.60952    -0.93700
N     -3.36816     3.17358    -1.10202
H     -2.81512     2.32819    -1.12155
H     -4.34172     2.90091    -1.13709
H     -3.17330     3.67966    -1.95574
N     -1.62629    -0.14639    -1.24971
H     -0.71346    -0.56902    -1.06745
H     -2.30364    -0.66260    -0.69945
H     -1.83797    -0.34556    -2.22050
N      2.62041    -0.21814     1.18713
H      3.50731     0.26635     1.22820
H      1.92446     0.43046     0.82007
H      2.34431    -0.41914     2.14089
