 20
-283.0047391336109
N     -2.26557     1.97954    -1.56472
H     -2.52031     1.54880    -0.68261
H     -3.12559     2.18742    -2.05305
H     -1.81531     2.85899    -1.35062
N     -2.50527    -0.34769     0.95378
H     -3.21285    -1.01526     1.23148
H     -1.91556    -0.80492     0.26982
H     -1.91667    -0.18157     1.75778
N      4.20288    -0.30390     1.81147
H      4.63202     0.44272     1.27886
H      3.22942    -0.35661     1.52268
H      4.64605    -1.16716     1.52231
N     -0.37325    -0.86479    -2.13185
H     -0.96250    -1.57478    -2.54588
H     -0.90821    -0.00012    -2.13985
H      0.40405    -0.72713    -2.76582
N      0.95042    -0.46256     1.05076
H      0.51094     0.43142     1.23097
H      0.48318    -1.15247     1.62498
H      0.74974    -0.68789     0.08237
