 24
-339.6122997543227
N      2.33467    -1.46872    -0.18469
H      2.93237    -1.84564    -0.91053
H      2.37149    -2.11968     0.59218
H      1.37612    -1.48791    -0.52969
N     -2.15802    -1.02330     1.44893
H     -3.12462    -0.78405     1.63440
H     -1.74522    -1.28992     2.33523
H     -1.68364    -0.16843     1.15321
N     -0.54747    -1.85453    -1.11832
H     -1.10689    -1.77007    -0.27103
H     -1.10433    -1.48411    -1.87807
H     -0.43697    -2.84368    -1.30845
N     -0.98140     1.35899    -2.58325
H     -1.57672     1.11506    -1.80403
H     -1.47237     1.13999    -3.43759
H     -0.17470     0.75496    -2.51262
N     -0.86492     1.67067     0.78570
H     -1.35709     2.25038     1.45655
H      0.08185     1.55491     1.14313
H     -0.77932     2.21921    -0.06174
N      2.25602     1.40320     1.41703
H      2.83547     1.30269     2.24150
H      2.29127     0.52102     0.90806
H      2.69094     2.10005     0.82267
