 24
-339.6044068131673
N      3.05923    -1.04689    -0.38120
H      3.32170    -1.80151    -1.00146
H      3.72604    -0.29972    -0.51489
H      3.15531    -1.37761     0.57097
N     -0.62967     3.13565     1.93362
H     -1.02308     3.78813     2.59869
H     -0.14750     3.67407     1.22647
H     -1.40076     2.65173     1.48362
N      1.11668    -2.49990    -2.47871
H      0.47566    -2.03170    -3.10316
H      0.65107    -3.31505    -2.10280
H      1.30927    -1.86914    -1.70978
N     -1.39426    -0.08117    -1.72624
H     -0.57312     0.03177    -1.14520
H     -1.43948    -1.05902    -1.97160
H     -1.23985     0.45399    -2.56943
N     -3.33981     1.51525     0.62164
H     -2.95851     0.96536    -0.14022
H     -3.75245     0.87133     1.28316
H     -4.08537     2.08377     0.24344
N      1.37597    -1.21588     2.33335
H      1.24401    -0.91226     1.37709
H      0.59693    -1.81804     2.56601
H      1.28771    -0.38169     2.90092
