 24
-339.6110355416534
N      0.17470    -2.46263     1.98364
H      0.08019    -3.22224     2.64276
H     -0.73803    -2.27882     1.58914
H      0.74746    -2.79454     1.21700
N     -3.46846     1.57896    -0.51533
H     -3.83211     1.25570    -1.40351
H     -2.71879     0.94415    -0.24878
H     -4.20777     1.46644     0.16751
N      2.55920    -2.41112    -2.16606
H      2.57002    -1.81707    -1.34330
H      3.38823    -2.99019    -2.13247
H      2.64482    -1.81329    -2.97774
N     -0.89260     3.30599    -0.13037
H     -0.58127     3.79147    -0.96345
H     -1.83837     2.97622    -0.30982
H     -0.95001     3.99304     0.61222
N     -0.82053     0.21668     0.38880
H     -0.52308    -0.05787     1.31442
H     -0.21194    -0.25856    -0.26553
H     -0.68601     1.21930     0.28395
N      2.47872    -0.56063     0.68763
H      3.35975    -0.37219     1.14762
H      2.08615     0.33833     0.43358
H      1.85089    -0.95394     1.38041
