 36
-509.4322390529484
N     -2.30043     1.21625    -1.64746
H     -3.22739     1.15988    -2.04334
H     -2.40091     1.14856    -0.63844
H     -1.79814     0.39196    -1.94670
N      2.26813    -0.23370     0.02523
H      1.74056     0.57893    -0.27255
H      3.24298    -0.03271    -0.12829
H      2.01584    -0.99808    -0.59349
N      0.43455     2.74969    -0.23486
H      0.75260     3.70182    -0.33239
H     -0.35009     2.63362    -0.86195
H      0.05465     2.65300     0.69803
N      1.06349    -2.06838     2.56844
H      0.40240    -2.52468     1.95271
H      1.66337    -1.52855     1.94887
H      1.63700    -2.78604     2.98607
N     -0.89298    -1.38494     0.03735
H     -0.44519    -0.91356     0.81515
H     -0.42552    -1.02254    -0.78666
H     -1.83358    -1.01975    -0.00084
N     -2.66019     0.73241     1.73647
H     -1.76603     1.03494     2.10987
H     -3.38553     1.14906     2.30127
H     -2.68949    -0.26659     1.89251
N      0.50667     0.65658    -3.02702
H      1.23968     0.88721    -2.37009
H      0.86801     0.85600    -3.94688
H     -0.24651     1.30757    -2.84872
N      0.47881     1.15802     2.84713
H      0.52875     0.18938     3.14971
H      1.13657     1.23989     2.08219
H      0.83952     1.71955     3.60491
N      1.01139    -2.65372    -2.12435
H      1.25943    -3.52436    -2.56521
H      0.25988    -2.82735    -1.47126
H      0.66257    -2.02466    -2.83377
