 24
-339.61327302278386
N      1.06302    -1.49108     1.74742
H      0.84349    -2.07108     0.94568
H      0.97542    -2.07584     2.56775
H      0.33071    -0.79388     1.78365
N     -3.08797     1.56254     1.44155
H     -2.22272     1.08780     1.18719
H     -2.89963     2.11970     2.26568
H     -3.75927     0.85170     1.70433
N      1.03354    -1.72860    -1.73305
H      0.69894    -0.85014    -2.10840
H      1.99623    -1.56857    -1.45248
H      1.04259    -2.39454    -2.49315
N     -2.37344     2.42249    -1.54931
H     -3.01128     2.05383    -2.24388
H     -2.81212     2.29354    -0.63968
H     -2.29705     3.41920    -1.70896
N     -0.57794     0.48404     0.07449
H     -0.52477    -0.42983    -0.36269
H     -0.98802     1.14952    -0.57400
H      0.38329     0.74318     0.25850
N      3.97195    -1.17878     0.06558
H      4.55942    -1.97679     0.26828
H      4.52839    -0.34625     0.20842
H      3.23304    -1.16912     0.76294
