 36
-509.4295000541208
N     -0.16615     2.97165    -3.12148
H     -0.72161     2.25430    -2.65945
H     -0.61791     3.85722    -2.93102
H     -0.24054     2.80440    -4.11729
N      1.15104     1.28303    -0.46189
H      1.24696     1.94033    -1.22834
H      1.28623     0.35409    -0.83997
H      0.19798     1.34080    -0.12668
N      2.78728     2.23876     1.83722
H      2.27086     1.89007     1.02397
H      2.73169     3.25018     1.81255
H      3.76200     1.99366     1.70925
N     -0.37088    -1.79863    -1.83238
H     -0.67781    -0.83519    -1.78329
H     -0.25208    -2.02788    -2.80774
H     -1.09950    -2.39036    -1.45471
N     -1.60209    -0.10554     0.90939
H     -0.89085     0.22326     1.58114
H     -2.51043    -0.00198     1.35680
H     -1.46344    -1.10642     0.81758
N     -1.17059    -3.85626     0.81443
H     -1.64623    -3.98912     1.69912
H     -0.94950    -4.78317     0.46936
H     -0.28694    -3.39278     1.01357
N      1.32093    -2.05178     0.80132
H      1.37693    -1.06350     1.01292
H      2.27674    -2.38611     0.77293
H      0.93543    -2.12273    -0.13954
N      0.38994     0.55351     2.88691
H      1.19460     1.14303     2.68117
H     -0.02880     0.88811     3.74642
H      0.72799    -0.38306     3.08050
N     -2.22847     0.87696    -1.74229
H     -2.97973     1.55753    -1.70264
H     -2.61313     0.06807    -2.21611
H     -2.00139     0.58511    -0.77899
