 36
-509.4303144186088
N     -1.99626    -0.77642    -2.81328
H     -2.09601    -0.60698    -1.81058
H     -2.43056     0.00704    -3.28694
H     -2.55415    -1.59052    -3.03833
N      0.30686     1.90257     3.42766
H      0.58848     2.20294     4.34772
H     -0.34517     1.13755     3.52897
H      1.11846     1.52801     2.95071
N      2.44665     0.07448     1.41185
H      1.95034    -0.64458     0.89731
H      2.57376     0.83826     0.76040
H      3.36224    -0.29296     1.62468
N      0.78506    -2.33846    -0.51244
H      0.69616    -3.34257    -0.57916
H     -0.14137    -1.95317    -0.65073
H      1.31438    -2.05395    -1.33070
N     -0.25328    -1.55806     2.78060
H     -0.49295    -2.12245     3.58182
H      0.10614    -2.18036     2.06858
H      0.53039    -0.97644     3.04158
N     -2.23752    -0.25937     0.12548
H     -3.21457    -0.40678     0.34938
H     -1.71407    -0.62358     0.91718
H     -2.08619     0.74751     0.14993
N      1.37521    -1.01628    -3.57308
H      1.59117    -1.35226    -4.49984
H      0.36695    -1.07410    -3.45071
H      1.60541    -0.03261    -3.54317
N      0.79566     1.02469    -1.26962
H      0.44783     1.00446    -0.31871
H      0.02682     0.69586    -1.83852
H      1.49529     0.29652    -1.31408
N     -1.12131     2.93203     0.49052
H     -0.38560     2.93380    -0.20436
H     -1.58328     3.82925     0.46132
H     -0.68367     2.84298     1.40214
