 24
-339.61276195026875
N     -0.70863    -1.49639     1.32178
H     -0.59644    -2.49348     1.43209
H     -1.70145    -1.31653     1.24480
H     -0.30957    -1.25702     0.42301
N      1.05684     0.70061     3.21820
H      1.91843     0.27365     3.53260
H      0.56785     1.04269     4.03528
H      0.48605    -0.03810     2.81508
N      0.78489     1.96418     0.01810
H      0.68036     2.96359    -0.08577
H     -0.09056     1.54280    -0.26604
H      0.88093     1.77382     1.01158
N     -0.54501    -0.35233    -2.36271
H     -0.52290    -1.27303    -2.78332
H     -0.76258     0.29747    -3.10720
H      0.41225    -0.15264    -2.08670
N     -3.50473    -0.44612    -0.46696
H     -4.09909    -1.07898    -0.98590
H     -3.94317     0.46532    -0.48486
H     -2.63286    -0.36787    -0.98139
N      2.83178    -0.20379    -1.48708
H      3.14421    -0.93310    -0.85820
H      3.65213     0.16748    -1.94833
H      2.45744     0.53650    -0.89939
