 28
-396.2169716228094
N      2.42371    -2.44873    -0.02203
H      2.35772    -3.43646     0.18864
H      3.38557    -2.17681     0.13332
H      1.85724    -1.95743     0.66380
N     -1.87004    -0.33535    -1.06915
H     -1.10798     0.29257    -1.29832
H     -1.44043    -1.24726    -1.00339
H     -2.49197    -0.35737    -1.86690
N      0.27967    -0.73297     1.92334
H     -0.50973    -0.57876     1.30954
H     -0.08680    -1.15478     2.76480
H      0.60189     0.18928     2.18860
N     -3.02109     1.72073     1.49998
H     -2.75686     1.09312     0.74779
H     -3.55228     1.17599     2.16540
H     -3.65057     2.40649     1.10453
N      0.69994    -1.86625    -2.98218
H      0.62968    -0.86279    -2.88881
H     -0.24536    -2.21983    -2.99442
H      1.14559    -2.21459    -2.14115
N      0.29855     2.69625     1.73815
H      0.36870     3.06440     0.79873
H     -0.67878     2.45448     1.86701
H      0.51355     3.44697     2.37812
N      1.24146     1.01277    -1.09889
H      1.17046     1.24551    -0.11500
H      1.63737     0.07977    -1.12252
H      1.94898     1.61711    -1.49567
