 24
-339.6136662402939
N      2.48593    -2.41570     0.42437
H      2.05798    -3.06839     1.06759
H      3.46876    -2.64701     0.36932
H      2.41638    -1.49576     0.84926
N      0.01368     1.88469     0.12256
H      0.56469     2.56297    -0.38872
H     -0.19617     1.13451    -0.52680
H     -0.87425     2.32924     0.33525
N      0.40213    -1.72347    -2.25771
H      1.07692    -1.88125    -1.51444
H      0.32283    -2.59712    -2.76193
H      0.83056    -1.06278    -2.89249
N     -2.00194    -0.76642     0.02790
H     -1.29385    -0.45512     0.68246
H     -2.50250    -1.52548     0.46994
H     -1.49848    -1.15142    -0.76438
N     -3.34354     2.31019    -0.16911
H     -3.04575     1.33749    -0.19644
H     -4.11108     2.36619     0.48866
H     -3.71543     2.52660    -1.08533
N      2.32292     0.67493     1.91210
H      2.14606     0.74269     2.90784
H      3.10682     1.28462     1.71234
H      1.51640     1.06652     1.43416
