 36
-509.4300841842443
N     -3.03164    -0.86732    -3.03412
H     -3.98079    -0.52807    -2.96101
H     -2.95189    -1.37254    -3.90564
H     -2.43145    -0.05177    -3.10038
N      2.43209     1.74554     2.30116
H      1.76497     0.96739     2.40213
H      2.69324     2.05183     3.23002
H      1.93772     2.51823     1.86904
N      3.64295    -0.27854     0.30461
H      4.23696     0.06631    -0.43901
H      3.49697     0.48267     0.96667
H      4.17869    -0.98825     0.79024
N     -2.32951     0.47748     1.60405
H     -3.29486     0.38718     1.89572
H     -2.30948     1.21713     0.91238
H     -2.08077    -0.38071     1.09892
N      0.56449    -0.52137     2.69957
H      0.62538    -1.07926     3.54095
H      0.63579    -1.16146     1.91750
H     -0.37344    -0.12820     2.67021
N     -1.71599    -1.95890    -0.01416
H     -2.21091    -2.76545     0.34439
H     -0.75334    -2.24145    -0.18062
H     -2.13567    -1.73651    -0.91281
N     -0.94834     1.84265    -2.92764
H     -1.37909     2.75794    -2.96180
H     -0.59597     1.72284    -1.98413
H     -0.13783     1.88840    -3.53205
N      0.18502     1.30339    -0.06619
H     -0.12619     1.56009     0.85967
H     -0.20902     0.38680    -0.23238
H      1.18679     1.18961    -0.03138
N      1.33078    -1.78920    -0.66559
H      0.72416    -1.23044    -1.25557
H      2.06752    -1.16858    -0.30841
H      1.77651    -2.46474    -1.27704
