 28
-396.21901955105045
N      0.06598    -2.20069    -2.55876
H     -0.29148    -2.53428    -3.44644
H     -0.09337    -2.93545    -1.87781
H     -0.52358    -1.42008    -2.26999
N      2.36326    -0.06903     1.24277
H      2.20942    -0.08624     0.22504
H      2.32505    -1.03567     1.55633
H      3.31922     0.23471     1.39676
N      2.07121     0.06351    -1.67425
H      1.57535    -0.76304    -2.00461
H      1.50301     0.86608    -1.92412
H      2.92644     0.13461    -2.21281
N     -1.82883     0.18035    -1.52669
H     -1.20412     0.94617    -1.28915
H     -2.12248    -0.25033    -0.65427
H     -2.65402     0.57833    -1.95498
N     -2.52798    -1.34149     1.56057
H     -2.26795    -2.30626     1.71298
H     -1.76432    -0.77199     1.91085
H     -3.33137    -1.14772     2.14346
N      0.18662     2.41261    -0.07221
H     -0.52409     1.92045     0.45235
H      1.07025     2.03989     0.24476
H      0.14314     3.38796     0.18625
N     -0.18502     0.77043     2.88457
H      0.62752     0.57291     2.29818
H     -0.36077     1.76540     2.80832
H      0.09305     0.60145     3.84399
