 36
-509.4271855832068
N     -0.84905     0.30295     1.11684
H     -0.00886     0.36520     0.54169
H     -1.43968    -0.40587     0.70280
H     -1.34807     1.18309     1.04965
N      0.44045     3.09497     0.79861
H     -0.45348     3.11041     0.31667
H      0.34300     2.41240     1.53995
H      0.57791     3.99980     1.22579
N      1.38759     0.44929    -1.09881
H      1.34157     1.39058    -0.72478
H      1.99947     0.45668    -1.90282
H      0.45856     0.23092    -1.43808
N      4.43071    -0.11755    -2.03639
H      3.88205    -0.17060    -1.18921
H      4.88825    -1.01163    -2.15780
H      5.14508     0.58347    -1.88771
N     -2.55779     2.56168    -0.82334
H     -3.51188     2.64321    -0.49358
H     -2.50253     3.09909    -1.67987
H     -2.41049     1.58819    -1.09534
N     -2.22198    -0.22398    -2.15722
H     -1.68499    -0.23254    -3.01975
H     -1.92228    -1.02914    -1.58432
H     -3.18287    -0.39691    -2.43342
N      1.02910    -2.32629     0.89899
H      1.58449    -1.62483     0.41994
H      0.84704    -1.98675     1.84159
H      1.60793    -3.15347     0.97639
N      0.17002    -1.01630     3.68176
H      0.66327    -0.39675     4.31221
H     -0.65727    -1.34555     4.16267
H     -0.15235    -0.46247     2.88788
N     -1.48946    -2.53270    -0.54583
H     -2.19691    -2.80508     0.13082
H     -1.40621    -3.32460    -1.17681
H     -0.59522    -2.45949    -0.02884
