 36
-509.4252744358603
N     -1.29679    -2.69641    -2.08471
H     -1.86098    -2.33850    -2.84438
H     -1.24496    -3.69956    -2.21347
H     -1.79800    -2.53205    -1.21011
N      0.43585     3.66903     0.89558
H      0.11992     4.60122     1.12102
H      0.86497     3.70266    -0.02467
H     -0.38188     3.06906     0.81977
N      1.84958     3.10732    -2.23150
H      1.64327     2.15107    -1.96314
H      1.33914     3.29343    -3.08463
H      2.83679     3.15198    -2.44525
N      1.42791    -3.28731    -0.69061
H      0.61796    -2.92189    -1.18949
H      2.11365    -3.55850    -1.38551
H      1.13051    -4.14111    -0.23533
N     -1.94252     1.32189     0.46515
H     -2.90631     1.58047     0.31597
H     -1.62802     0.79831    -0.33886
H     -1.88319     0.69726     1.25722
N      1.02424     0.10931    -0.99768
H      0.53735     0.45178    -0.18017
H      0.36032    -0.41006    -1.55317
H      1.70925    -0.56057    -0.68131
N      1.55379     1.25586     2.14652
H      2.27086     1.01417     1.46895
H      1.19886     2.16690     1.84437
H      2.04149     1.38378     3.02624
N     -0.21081    -1.12906     2.04401
H     -0.05356    -1.61579     2.91969
H      0.22762    -1.70575     1.33067
H      0.32445    -0.25355     2.08863
N     -2.62359    -2.10108     0.56787
H     -1.86878    -1.70891     1.13712
H     -3.32515    -1.37575     0.47616
H     -3.04918    -2.85254     1.09706
