 36
-509.4292788600841
N     -2.03368     2.35371    -2.33351
H     -2.30630     2.51508    -1.37146
H     -2.79920     2.65101    -2.92190
H     -1.95667     1.35019    -2.43131
N     -1.05834     0.75207     3.15406
H     -0.72339     1.51696     3.73056
H     -1.43837     0.06512     3.79557
H     -0.23517     0.33427     2.71008
N      3.06476    -0.10253    -2.77209
H      2.25345     0.19024    -2.22306
H      3.82786     0.50563    -2.49905
H      2.85282     0.11543    -3.73947
N      1.30322    -2.41370    -1.25730
H      2.13489    -2.00184    -1.67107
H      1.08355    -3.24196    -1.79579
H      0.54856    -1.75520    -1.40692
N      1.33193    -0.41163     1.85255
H      2.14522    -0.02674     2.32398
H      1.28240    -1.39525     2.11681
H      1.56601    -0.42915     0.86547
N     -1.76413    -0.32283    -0.25929
H     -1.24092    -0.43319     0.60089
H     -2.39500     0.45985    -0.11054
H     -2.34418    -1.14395    -0.34926
N      1.30886    -3.41198     1.55984
H      2.10124    -4.03911     1.63624
H      0.47299    -3.98065     1.62733
H      1.32804    -3.01062     0.61769
N     -2.82734     2.55047     1.10950
H     -2.28867     1.91579     1.69421
H     -2.33320     3.43447     1.12272
H     -3.72021     2.70085     1.55962
N      0.71982     1.01525    -1.15316
H      0.50251     1.85150    -1.68469
H     -0.17627     0.55224    -0.97965
H      1.03891     1.34235    -0.24734
