 40
-566.0355883141281
N     -2.80796     0.01232     1.41862
H     -3.26428    -0.73097     0.90031
H     -3.48842     0.34859     2.09102
H     -2.63166     0.77577     0.74967
N      0.23281    -3.17385    -0.11362
H     -0.55508    -2.93381    -0.70453
H      0.23338    -4.17855     0.00855
H      0.06223    -2.76072     0.80057
N      1.30016     1.46226    -1.62235
H      2.00002     2.02794    -2.08452
H      1.06298     1.94302    -0.75726
H      1.75592     0.59880    -1.35169
N     -2.31303     2.35360    -0.23737
H     -1.49860     2.82189     0.14853
H     -2.13673     2.22525    -1.23402
H     -3.08184     3.00803    -0.15312
N      3.15070     0.02411     1.59954
H      3.01248    -0.55995     0.77599
H      4.04472     0.48945     1.49966
H      3.24515    -0.60663     2.38794
N      0.49681     2.13715     1.51478
H      0.62812     2.62616     2.38768
H     -0.34679     1.58550     1.61002
H      1.26605     1.48095     1.41847
N      2.86563    -1.92052    -0.80601
H      1.94168    -2.30728    -0.60213
H      3.04095    -2.06322    -1.79455
H      3.52947    -2.51573    -0.32031
N     -1.79839    -0.96448    -1.48990
H     -2.42000    -0.18096    -1.63075
H     -1.57892    -0.97106    -0.50105
H     -0.92984    -0.71447    -1.94560
N     -0.08289    -1.40339     2.77033
H     -0.19770    -1.52129     3.76609
H      0.70675    -0.78607     2.63405
H     -0.89479    -0.89514     2.42719
N     -1.31351     1.72506    -3.11783
H     -1.12644     2.40637    -3.84323
H     -1.56936     0.85987    -3.57779
H     -0.43865     1.56522    -2.60888
