 24
-339.6080759735272
N      0.02682    -1.71237     2.16041
H      0.24043    -1.52821     3.13276
H     -0.48648    -0.91083     1.80713
H     -0.59513    -2.51079     2.13566
N     -3.73814     1.23857     0.64375
H     -4.29923     1.43465     1.46307
H     -4.24040     0.55313     0.09361
H     -2.87744     0.80300     0.96053
N      3.41415    -2.76802    -2.87944
H      2.90908    -1.98262    -2.48649
H      4.13180    -2.39009    -3.48623
H      2.76344    -3.27972    -3.46297
N     -1.65809     3.85160    -0.18128
H     -1.76459     4.17224    -1.13490
H     -2.44226     3.23608     0.01233
H     -1.76192     4.65957     0.41848
N     -0.60965     0.80375     0.47546
H      0.19883     0.25620     0.21117
H     -1.16281     0.95718    -0.35785
H     -0.28427     1.72473     0.74198
N      2.54910    -1.43678    -0.14028
H      3.01269    -2.28457    -0.44334
H      3.25273    -0.85645     0.29745
H      1.88814    -1.69651     0.58711
