 24
-339.60861692322317
N      0.05850    -3.72127    -1.81130
H      1.00465    -3.92025    -2.10807
H     -0.45083    -3.36086    -2.60726
H      0.11124    -2.97533    -1.13017
N     -1.09834     2.52684     1.54491
H     -0.73563     3.19693     2.21000
H     -2.03139     2.28200     1.85047
H     -0.53538     1.68386     1.62812
N     -1.01447    -3.44851     1.26539
H     -2.00726    -3.29115     1.37936
H     -0.89721    -3.98845     0.41626
H     -0.71959    -4.04106     2.03035
N     -0.76783     2.77980    -1.85711
H     -0.45428     1.81711    -1.89045
H     -1.61912     2.83989    -2.40009
H     -1.00974     2.94910    -0.88468
N      0.83539    -0.29508     1.51893
H      0.25539    -1.11939     1.42950
H      1.25383    -0.11492     0.61307
H      1.57949    -0.52914     2.16153
N      2.09103     1.67049    -0.71524
H      1.80787     1.87287     0.23679
H      3.07152     1.91283    -0.78673
H      1.58102     2.32778    -1.29438
