 28
-396.21942831351436
N     -0.31875     1.26034    -2.26380
H      0.55087     1.69091    -2.55985
H     -0.52545     1.65474    -1.34315
H     -1.03319     1.58239    -2.90565
N      2.49715    -0.39245    -1.50558
H      2.66680     0.28704    -0.77543
H      3.13986    -0.19721    -2.25903
H      1.55912    -0.20183    -1.84231
N      1.68123    -3.31048     0.03272
H      2.10398    -2.58383    -0.53700
H      2.36634    -3.59274     0.72071
H      1.52010    -4.10412    -0.57316
N     -0.60008     2.51961     0.42228
H     -0.50041     3.50568     0.22286
H     -1.41460     2.40835     1.01674
H      0.21691     2.24175     0.95602
N     -1.28752    -1.34801     0.05826
H     -0.95412    -0.79752    -0.72443
H     -1.97850    -1.98961    -0.30972
H     -0.50804    -1.92115     0.35921
N      1.43800     0.26181     1.62992
H      0.43325     0.23107     1.50811
H      1.60829     0.02097     2.59600
H      1.78654    -0.50335     1.06738
N     -3.39292     0.88937     1.63495
H     -2.73944     0.25896     1.18022
H     -3.69741     0.43861     2.48819
H     -4.19649     0.97000     1.02584
