 36
-509.4272011281607
N     -2.26876     1.12978    -2.04473
H     -2.22193     0.72972    -1.10498
H     -3.17940     1.55124    -2.17689
H     -2.21820     0.34037    -2.67925
N     -0.02991     2.78730     0.29799
H      0.70026     2.40554    -0.29008
H      0.01880     3.79413     0.23709
H     -0.91346     2.49265    -0.09178
N     -0.07922    -1.28825     3.46581
H      0.20261    -0.35688     3.14421
H      0.72442    -1.66169     3.96106
H     -0.80282    -1.17085     4.16688
N      2.20587    -0.26352    -0.36192
H      1.90484     0.19720    -1.21240
H      1.59701    -1.05965    -0.23091
H      3.13640    -0.61812    -0.51770
N      1.13874     1.27367     2.48909
H      1.70047     1.78994     3.15789
H      1.79389     0.85065     1.83705
H      0.61913     1.94816     1.92009
N     -1.69608    -0.18948     0.54925
H     -0.86684     0.17357     1.00190
H     -2.41207    -0.24332     1.25953
H     -1.48594    -1.14344     0.28270
N      0.83037     1.56490    -2.94371
H      1.19951     2.32456    -3.49684
H      0.63487     0.79897    -3.57611
H     -0.08028     1.84563    -2.59503
N     -0.23613    -1.60079    -2.36561
H      0.73067    -1.59104    -2.66102
H     -0.38416    -0.72694    -1.87852
H     -0.31413    -2.33311    -1.67176
N      0.02723    -3.27094     0.82766
H     -0.05492    -2.61805     1.60411
H     -0.67636    -3.98443     0.96738
H      0.92398    -3.72753     0.93028
