 28
-396.2174828423217
N      3.60958    -0.31139     0.39058
H      4.00331     0.40517     0.98848
H      4.31871    -0.55410    -0.29066
H      2.83384     0.11519    -0.11231
N      1.09182     0.84929    -1.07734
H      0.81013     1.78097    -1.35708
H      1.00013     0.27058    -1.90425
H      0.38766     0.52529    -0.42581
N     -0.79807    -1.87300    -0.90976
H     -1.12990    -1.05165    -1.39614
H     -1.14591    -1.80323     0.03690
H      0.20504    -1.76887    -0.83947
N     -3.08140     0.42391    -0.31344
H     -3.19220    -0.44336    -0.82083
H     -2.46690     0.22083     0.47184
H     -3.99009     0.66247     0.06218
N     -0.78072    -0.06101     2.02064
H     -1.11816    -0.15182     2.97306
H     -0.06090    -0.77937     1.87196
H     -0.30353     0.83564     1.97874
N     -1.39075     3.06138    -1.80539
H     -1.83634     3.22857    -2.69783
H     -1.84799     2.25477    -1.39113
H     -1.59876     3.85192    -1.21004
N      1.31958    -2.08135     1.60121
H      1.52661    -2.52198     2.49008
H      1.11885    -2.83375     0.95155
H      2.17470    -1.62194     1.28751
