 24
-339.6109624472957
N      0.63007    -1.99794     1.59068
H      0.04687    -2.82552     1.58446
H      0.81525    -1.78581     2.56421
H      0.07013    -1.23439     1.21983
N     -2.77502     1.92441     1.52146
H     -2.54495     2.47323     2.33993
H     -3.71367     1.57146     1.66157
H     -2.15465     1.12326     1.50536
N      1.22973    -1.19193    -1.72157
H      1.07875    -1.53192    -2.66085
H      2.15844    -0.78952    -1.68713
H      1.26861    -1.99834    -1.10996
N     -2.36817     2.70977    -1.78043
H     -2.11719     3.66958    -1.97789
H     -2.51478     2.62948    -0.77849
H     -1.56386     2.13783    -2.00668
N     -0.77089     0.25827     0.00078
H     -0.07420    -0.18543    -0.59936
H     -1.66540     0.26958    -0.47392
H     -0.52548     1.23310     0.12311
N      3.83156    -1.48965     0.27652
H      4.34245    -2.34271     0.46142
H      4.32220    -0.73504     0.73729
H      2.92978    -1.57932     0.73492
