 24
-339.60977276220683
N      1.22546    -4.46791     1.04153
H      1.88284    -5.18140     0.75497
H      1.72428    -3.58774     1.02644
H      0.97438    -4.64368     2.00556
N      0.49254     2.00906    -0.52866
H     -0.37781     2.52989    -0.57623
H      1.14411     2.50304    -1.12656
H      0.32577     1.10868    -0.96732
N      0.82334    -1.45888    -0.72951
H      0.49789    -2.32826    -0.32832
H      1.39367    -1.70123    -1.52836
H      1.41466    -0.98473    -0.05053
N     -2.70638     3.24128    -1.23892
H     -3.03417     3.31592    -2.19318
H     -2.85136     2.27832    -0.94861
H     -3.30374     3.82152    -0.66489
N     -2.31685     0.18718     0.04427
H     -1.83586    -0.49967    -0.52213
H     -1.59848     0.57053     0.64621
H     -2.96616    -0.30777     0.63873
N      2.37443     0.52931     1.28593
H      3.29669     0.91382     1.12081
H      1.70531     1.11090     0.77995
H      2.18680     0.63596     2.27561
