 28
-396.21980367086456
N      0.80701    -1.51298    -1.38332
H     -0.10886    -1.57876    -1.81795
H      0.65387    -1.59766    -0.38467
H      1.32899    -2.32948    -1.66992
N      1.62595     1.26193    -2.04156
H      0.87569     1.68995    -2.57640
H      2.43922     1.26043    -2.64693
H      1.34379     0.28975    -1.87179
N      1.94609     0.31720     1.36075
H      2.23194     0.19927     0.39736
H      2.79228     0.36147     1.91256
H      1.49986     1.22799     1.41844
N     -2.52447    -1.08037    -1.85848
H     -2.32585    -0.63835    -0.96496
H     -3.00717    -0.39915    -2.43011
H     -3.17590    -1.83225    -1.67066
N     -1.93930     0.13460     1.23883
H     -2.64235     0.35609     1.93151
H     -1.19287     0.80835     1.35513
H     -1.53438    -0.76314     1.48847
N      0.03778     2.68531     0.20675
H     -0.86520     2.30605    -0.04657
H      0.71213     2.27121    -0.43488
H      0.00326     3.68045     0.03155
N      0.15690    -1.78585     2.42298
H      0.76794    -2.52167     2.75863
H      0.74152    -1.01572     2.07672
H     -0.33921    -1.42948     3.23346
