 24
-339.60655227405056
N      0.90395     0.44591     0.19804
H      1.90798     0.37167     0.11269
H      0.61602     1.29463    -0.27286
H      0.67147     0.56572     1.17661
N     -1.25318     1.71778     2.55369
H     -1.38526     1.72541     1.54498
H     -1.97584     1.11982     2.93568
H     -1.43689     2.65934     2.87859
N     -0.97678    -4.24050    -0.17030
H     -0.41181    -3.40139    -0.20881
H     -1.11609    -4.44450     0.81083
H     -0.41645    -4.98360    -0.56633
N     -2.07122     1.96757    -0.66996
H     -3.01681     1.99464    -0.30465
H     -2.02534     2.67870    -1.38834
H     -1.95750     1.06165    -1.11906
N     -1.30028    -0.96042    -1.53031
H     -0.62585    -0.60482    -0.85321
H     -1.76047    -1.77602    -1.15181
H     -0.79418    -1.24936    -2.35703
N      4.55282     0.80649    -0.27397
H      4.91162     0.41732    -1.13551
H      4.72335     1.80306    -0.29890
H      5.10326     0.42727     0.48469
