 12
-169.79731683378802
N      0.44713     2.81643     0.00196
H     -0.38600     2.91540    -0.56514
H      0.69594     1.82998     0.00298
H      0.19440     3.06489     0.95068
N      1.33999    -0.42976    -0.02230
H      1.91283    -0.70769     0.76213
H      1.84903    -0.65241    -0.86656
H      0.50538    -1.00505    -0.00906
N     -1.69058    -2.26994    -0.00284
H     -1.94422    -2.55961    -0.93783
H     -1.69412    -3.09583     0.58042
H     -2.42547    -1.66162     0.33248
