 36
-509.42609475373484
N     -2.82091    -0.31240    -1.01214
H     -3.47240    -0.37211    -1.78612
H     -3.28640    -0.73574    -0.21658
H     -2.70494     0.68286    -0.79825
N     -0.88412     2.41376     2.48904
H     -0.44641     1.90953     1.72280
H     -0.18500     3.00584     2.91704
H     -1.16493     1.71518     3.16181
N      2.32794    -2.26328    -0.60746
H      2.06488    -3.07979    -1.14703
H      3.23092    -1.97222    -0.96405
H      2.45140    -2.56812     0.35806
N      2.52338    -2.98395     2.22321
H      2.15008    -3.84920     2.59318
H      3.33441    -2.73102     2.77422
H      1.81860    -2.25971     2.36319
N     -2.29573     2.54422    -0.44218
H     -1.48562     2.71898    -1.02709
H     -2.94188     3.30507    -0.60907
H     -1.98518     2.62256     0.52264
N      0.34751    -0.82638     2.80305
H     -0.43062    -1.30702     3.23887
H      0.63188    -0.08280     3.42915
H      0.00209    -0.37059     1.96105
N      0.43314     2.13165    -2.96377
H      0.51768     1.12200    -2.84567
H     -0.20167     2.26037    -3.74243
H      1.33679     2.47123    -3.27132
N      0.05023     0.55279     0.11312
H      0.33559     1.23525    -0.57823
H      0.79716    -0.13180     0.16429
H     -0.77411     0.08703    -0.26004
N      0.38521    -1.02785    -2.60419
H     -0.57365    -1.10069    -2.28031
H      0.48623    -1.70500    -3.35004
H      0.97751    -1.33597    -1.83451
