 24
-339.6131081654241
N      2.16295    -0.77227    -1.60790
H      2.03987    -1.60506    -1.03905
H      1.29160    -0.26174    -1.54174
H      2.26477    -1.06596    -2.57047
N     -1.84692    -2.03310     0.72277
H     -2.24717    -2.27547    -0.17537
H     -2.54372    -2.23846     1.42710
H     -1.69498    -1.02869     0.72923
N      1.34150    -3.19992     0.65525
H      0.40967    -2.80806     0.75704
H      1.23332    -4.19021     0.47791
H      1.80448    -3.10251     1.54959
N     -0.79535     3.20196    -1.01482
H     -0.79863     4.13858    -0.62790
H      0.04640     2.74236    -0.67105
H     -0.71251     3.29084    -2.02080
N     -1.98198     1.04261     0.74524
H     -2.21341     1.47695     1.63196
H     -1.61672     1.76937     0.12995
H     -2.86354     0.73449     0.34832
N      1.41961     1.61717     0.47417
H      2.04094     0.98998    -0.02800
H      1.97198     2.08956     1.17909
H      0.75633     1.02791     0.96625
