 24
-339.610327088648
N      1.34779    -0.82712    -0.89128
H      0.34050    -0.76590    -0.74439
H      1.61625    -0.00500    -1.41851
H      1.51663    -1.61823    -1.50159
N     -1.49912    -1.06935     0.08347
H     -2.01365    -1.86152    -0.28485
H     -0.83338    -1.45211     0.74457
H     -2.13524    -0.45501     0.59832
N      2.41215    -3.93918    -0.49776
H      2.18525    -3.04639    -0.07785
H      1.83342    -4.63799    -0.04848
H      3.37539    -4.14372    -0.26390
N     -1.21929     2.36885    -0.51018
H     -1.45288     2.95539    -1.30018
H     -0.24859     2.55442    -0.28030
H     -1.26186     1.40551    -0.82335
N     -3.10960     0.96330     1.45043
H     -2.53940     1.62161     0.92139
H     -4.08165     1.19544     1.28633
H     -2.92077     1.12048     2.43291
N      2.16302     2.29829     0.21009
H      2.09536     1.28843     0.25943
H      2.99731     2.52066    -0.31646
H      2.31074     2.62746     1.15525
