 24
-339.6104482143408
N      1.90390    -0.44989     3.10217
H      0.98587    -0.75842     2.79106
H      2.46062    -1.28117     3.25553
H      1.77553    -0.00765     4.00347
N     -1.10475    -1.62299     2.10519
H     -1.38866    -1.25168     1.20382
H     -1.23586    -2.62687     2.07641
H     -1.77162    -1.26462     2.77939
N     -0.34265    -1.36840    -2.86682
H     -1.06052    -1.65580    -3.51711
H      0.40149    -2.05025    -2.90453
H     -0.74474    -1.41130    -1.93988
N      0.06099     2.03120    -2.65064
H      0.24143     1.04616    -2.81005
H      0.77895     2.56494    -3.11847
H      0.13731     2.19805    -1.65698
N     -1.83903     0.21523    -0.25352
H     -2.66025     0.69747     0.08913
H     -1.03992     0.58413     0.25605
H     -1.72204     0.49852    -1.21738
N      1.23780     1.19209     0.49723
H      1.76555     1.49493    -0.30872
H      1.56399     1.70638     1.30301
H      1.51802     0.23573     0.67694
