 24
-339.6109621900506
N      0.85886    -2.43759    -0.78504
H      1.75656    -2.88070    -0.93828
H      0.84030    -2.15459     0.19625
H      0.15950    -3.16304    -0.89096
N     -0.61095     0.66745     2.59270
H     -0.19669     1.59253     2.57548
H     -0.75819     0.37990     1.62171
H     -1.52671     0.75676     3.01616
N      1.11040    -1.85330     2.22508
H      0.63204    -1.02285     2.56911
H      0.71931    -2.64989     2.71636
H      2.08439    -1.78513     2.49916
N     -1.38253     3.00970    -1.76799
H     -1.80789     3.28114    -2.64358
H     -1.61004     3.72010    -1.08627
H     -0.38012     3.03651    -1.89974
N     -1.34467    -0.15941    -0.23289
H     -0.66824    -0.72563    -0.73872
H     -2.22198    -0.66449    -0.25840
H     -1.49076     0.69697    -0.75839
N      1.24289     0.88951    -2.01838
H      0.30770     0.99414    -2.38543
H      1.52463    -0.05857    -2.23232
H      1.14626     0.90927    -1.01086
