 36
-509.42965087324797
N     -0.02354     2.86056    -1.61805
H     -0.17153     3.16269    -2.57350
H      0.60234     3.54222    -1.20254
H      0.48232     1.96825    -1.65799
N     -2.96468     1.96367    -0.06014
H     -3.59933     2.71721     0.16781
H     -2.59283     1.59938     0.80759
H     -2.17231     2.37219    -0.54994
N      3.70482     0.01990     0.23054
H      4.60319    -0.43918     0.12855
H      3.83427     0.78209     0.88734
H      3.06852    -0.65034     0.66412
N      1.75478    -2.03060     1.40674
H      1.16101    -2.37112     0.65179
H      2.34713    -2.80309     1.68281
H      1.15980    -1.81692     2.20380
N     -0.46346     0.59902     0.97082
H      0.42161     0.11346     1.01303
H     -1.01376     0.17527     0.23805
H     -0.27185     1.53990     0.65364
N     -0.49463    -0.75485     3.64018
H     -0.13879    -0.13953     4.36032
H     -0.71661    -0.17573     2.83507
H     -1.36114    -1.14281     3.98981
N      1.34252     0.24653    -2.00169
H      2.13433     0.25879    -1.36069
H      0.80549    -0.58523    -1.78086
H      1.73006     0.09860    -2.92569
N     -0.85882    -2.51220    -0.53834
H     -1.35536    -1.79842    -1.08218
H     -1.35816    -3.38771    -0.64610
H     -0.94828    -2.25839     0.44053
N     -2.10584    -0.41694    -2.17027
H     -2.80836     0.10184    -1.65209
H     -1.40633     0.25911    -2.45098
H     -2.54535    -0.76238    -3.01290
