 36
-509.42874228355475
N     -1.90452     3.27505    -0.72259
H     -2.46748     3.56345     0.07126
H     -1.00057     2.98798    -0.33211
H     -1.75484     4.11130    -1.27583
N      1.49064     0.14081     2.70809
H      2.09356     0.32479     1.91932
H      2.07481     0.01914     3.52158
H      1.04040    -0.74291     2.51288
N     -0.74440     0.33987    -2.54311
H     -0.74086     0.31630    -3.55306
H     -1.59607    -0.11273    -2.23365
H     -0.84038     1.30835    -2.26209
N      2.74086    -2.40746     0.57645
H      2.99476    -2.28405     1.54945
H      1.98588    -3.08740     0.54594
H      3.54518    -2.81188     0.11310
N     -3.83715     0.60741    -1.05846
H     -4.40911     0.64345    -0.22393
H     -3.18291     1.38609    -0.99868
H     -4.45051     0.79982    -1.84096
N     -0.76743    -0.99342     0.52619
H     -0.56184    -0.24245     1.17515
H     -0.39621    -0.68097    -0.36751
H     -1.77479    -0.99873     0.40672
N      2.20976     0.21165    -0.66853
H      1.72032     0.12567    -1.55500
H      3.16677     0.46065    -0.89875
H      2.23592    -0.72755    -0.24603
N      0.66835     2.51127     0.53325
H      1.28928     3.30844     0.43319
H      0.56885     2.36083     1.53209
H      1.16048     1.68955     0.15869
N     -0.00656    -3.90629     0.56827
H     -0.33512    -4.23092    -0.33406
H     -0.58993    -4.34783     1.26874
H     -0.19935    -2.90142     0.60275
