 24
-339.60932364901146
N      0.59899    -2.75883     1.25529
H      0.97382    -3.29772     2.02446
H     -0.04348    -3.35574     0.75173
H      1.37348    -2.56571     0.62667
N     -0.01669     0.67286     1.52046
H     -0.85561     0.91000     1.00980
H      0.09764    -0.33594     1.48974
H     -0.15063     0.93697     2.48590
N      3.22461    -2.04646    -0.91712
H      3.12484    -2.22064    -1.90786
H      3.10544    -1.04646    -0.78013
H      4.17899    -2.26599    -0.66572
N     -2.10163     2.02245    -1.21628
H     -1.59723     1.56470    -1.96429
H     -3.08745     1.94579    -1.43231
H     -1.86035     3.00356    -1.24802
N     -4.81437     0.75056    -0.09632
H     -5.35211     1.09585     0.68829
H     -5.02963    -0.23149    -0.21131
H     -3.83559     0.81741     0.15357
N      2.77318     1.35646    -0.31374
H      3.43463     1.75214     0.34233
H      2.58707     2.06464    -1.01186
H      1.90624     1.20679     0.19689
