 24
-339.6100167408095
N      0.09561    -3.48206     2.41763
H     -0.49255    -3.44182     1.59305
H      0.81424    -4.17161     2.23515
H     -0.47600    -3.83476     3.17526
N      1.05488     1.90445    -0.80266
H      0.93010     1.02395    -1.28638
H      1.82997     2.37959    -1.24234
H      1.34066     1.69207     0.14276
N     -0.82777    -0.39258    -2.77182
H     -1.39832     0.44655    -2.73632
H     -0.59661    -0.56360    -3.74068
H     -1.40939    -1.15779    -2.45869
N     -2.08614     2.72563    -1.82075
H     -2.05229     3.50799    -2.46146
H     -2.72560     2.97151    -1.07607
H     -1.16224     2.63858    -1.40400
N     -1.12222    -1.50318     0.26173
H     -1.93927    -0.94423     0.47647
H     -0.52253    -1.44452     1.07506
H     -0.64472    -1.00543    -0.48277
N      2.73077     0.69938     2.25612
H      2.70491     1.24223     3.10774
H      3.69387     0.45929     2.06696
H      2.24112    -0.16783     2.43712
