 24
-339.6126229644162
N      1.20179    -1.00456    -2.72693
H      1.96334    -0.72804    -2.12135
H      0.50748    -1.42541    -2.11917
H      1.55068    -1.73181    -3.33637
N      0.98346     0.75789    -0.06738
H      0.98979     1.04717    -1.03528
H      0.55224    -0.16402    -0.04373
H      0.36299     1.38132     0.42974
N     -1.04527    -1.64012    -0.15016
H     -1.20429    -2.59515     0.14005
H     -1.12202    -1.05072     0.67595
H     -1.78930    -1.39213    -0.79259
N     -1.75029     0.38744    -2.68393
H     -2.03953     1.27941    -3.06201
H     -1.50720     0.54951    -1.71538
H     -0.88029     0.12712    -3.13767
N     -1.06860     0.16767     2.47204
H     -1.78409     0.84993     2.69380
H     -1.19354    -0.59257     3.13180
H     -0.16585     0.58752     2.68143
N      1.84445     1.37430     2.80902
H      2.17936     2.33035     2.81173
H      2.53440     0.82160     3.30402
H      1.84379     1.06072     1.84114
