 36
-509.4276815150103
N      0.46903     1.94219    -3.18527
H      0.01189     2.74760    -3.59350
H      0.63710     2.16113    -2.20868
H      1.37464     1.86441    -3.63064
N      0.45135     1.97224     3.11149
H     -0.50443     1.96569     2.74876
H      0.40634     2.21720     4.09270
H      0.93702     2.72822     2.64072
N      0.44006     1.85069    -0.09283
H     -0.09440     1.11971    -0.54330
H      1.07302     1.39362     0.54390
H     -0.21764     2.37690     0.46273
N      1.65064    -1.30843    -0.52495
H      1.56261    -1.05550     0.46202
H      2.64265    -1.37947    -0.72708
H      1.30514    -0.53423    -1.08218
N     -1.24588    -0.88866    -2.28131
H     -2.16210    -1.04475    -2.68194
H     -0.82325    -0.13879    -2.82226
H     -0.70322    -1.73511    -2.43958
N     -2.40872     1.67393     1.94803
H     -3.12352     2.15559     1.41377
H     -2.08598     0.86348     1.39245
H     -2.87927     1.28939     2.76053
N     -1.54149    -0.79715     0.65608
H     -1.39713    -0.82842    -0.36270
H     -2.28188    -1.45891     0.86527
H     -0.69957    -1.17649     1.07568
N      1.55944    -0.67355     2.46558
H      1.06730    -1.34172     3.05024
H      2.52332    -0.68850     2.78179
H      1.17705     0.25275     2.69368
N      0.62577    -3.68286    -2.16159
H      0.95346    -2.97478    -1.50542
H      0.39023    -4.50447    -1.61938
H      1.41465    -3.92550    -2.74633
