 24
-339.6119080802833
N     -0.87569    -2.78298     0.19628
H     -0.83009    -3.49105     0.91668
H     -1.25074    -3.22296    -0.63411
H      0.08065    -2.52037    -0.02128
N      0.30671     0.58942     1.57679
H     -0.63616     0.87853     1.34872
H      0.34378    -0.39490     1.34083
H      0.38841     0.65928     2.58106
N      2.23427    -1.51522    -0.16044
H      3.03773    -2.10915    -0.31176
H      2.21664    -0.83092    -0.90863
H      2.41437    -0.97173     0.67449
N     -0.98402     2.24195    -1.13699
H     -1.89053     1.98117    -0.77315
H     -0.50978     1.37254    -1.34398
H     -0.46826     2.65137    -0.36991
N     -3.08445    -0.09933     0.59759
H     -3.77321    -0.30513    -0.11470
H     -2.44192    -0.88671     0.60897
H     -3.56827    -0.10009     1.48494
N      2.29414     1.66055    -1.01995
H      3.09489     2.23235    -0.78738
H      1.71527     2.19553    -1.65340
H      1.75568     1.53669    -0.16706
