 32
-452.8247878349027
N     -1.11905     1.64451    -1.25939
H     -1.49216     1.84915    -0.33742
H     -0.11139     1.71383    -1.18261
H     -1.43503     2.38083    -1.87754
N     -1.11650     1.45812     2.08628
H     -1.17804     1.65586     3.07483
H     -1.32123     0.47431     1.97341
H     -0.14221     1.56589     1.82298
N     -2.14743    -2.10567     1.15241
H     -2.11625    -3.11810     1.11903
H     -3.02351    -1.85598     1.59397
H     -2.19961    -1.77651     0.19040
N      2.22396     0.99488    -1.85590
H      1.88697     1.32569    -2.75337
H      3.21752     0.82062    -1.97148
H      1.77539     0.08789    -1.67672
N      1.08587    -1.64815    -1.28111
H      1.48430    -1.85005    -0.36919
H      0.08082    -1.71789    -1.17625
H      1.38497    -2.38645    -1.90527
N      1.17056    -1.45284     2.06224
H      0.19029    -1.56112     1.82231
H      1.25544    -1.64852     3.04946
H      1.37272    -0.46932     1.94256
N     -2.27012    -1.00125    -1.79546
H     -3.26613    -0.82774    -1.88892
H     -1.81785    -0.09336    -1.63064
H     -1.95354    -1.33574    -2.69897
N      2.17692     2.11025     1.09224
H      2.20388     1.77737     0.13049
H      3.06584     1.86602     1.51051
H      2.14059     3.12242     1.05554
