 36
-509.4281756828474
N      1.02222     0.86501    -0.02362
H      0.62280     1.68661    -0.45817
H      0.23497     0.27602     0.21465
H      1.46159     1.15721     0.83968
N     -2.02711     0.84679    -0.84556
H     -1.43235     0.74486    -1.67065
H     -1.99419    -0.05982    -0.37463
H     -2.98088     0.97509    -1.17505
N      0.61753    -0.90716     2.78412
H      0.81810    -1.15632     1.82401
H      0.69063     0.10601     2.84147
H      1.35825    -1.31150     3.34175
N      2.92014    -0.90780    -1.43994
H      3.61210    -0.34062    -1.91461
H      2.27983    -0.27915    -0.94080
H      3.42500    -1.42529    -0.72849
N     -1.48650     3.16668     0.83899
H     -2.20687     3.13743     1.55370
H     -1.68191     3.99274     0.28400
H     -1.63133     2.33397     0.23903
N     -1.54040    -1.86039     0.48466
H     -2.32450    -2.48612     0.61082
H     -0.84751    -2.34799    -0.08022
H     -1.14296    -1.69535     1.40686
N     -0.24242    -0.10055    -2.98165
H      0.74977    -0.00247    -2.82443
H     -0.53792    -0.92948    -2.48094
H     -0.39885    -0.25435    -3.96627
N      0.28013     2.10556     3.15276
H     -0.41607     1.62312     3.70884
H      0.57092     2.91486     3.68622
H     -0.18173     2.43561     2.30254
N      0.63055    -3.01004    -1.75337
H      1.03376    -3.90528    -1.50877
H      0.28204    -3.09259    -2.70018
H      1.38741    -2.32784    -1.77701
