 24
-339.605684182086
N     -1.20754    -4.02562     0.84152
H     -2.05812    -3.75709     0.36340
H     -0.77132    -3.16348     1.13976
H     -0.59299    -4.42785     0.14454
N      1.15965     3.01801    -0.87633
H      1.29784     2.93169    -1.87686
H      0.16721     2.85853    -0.68356
H      1.36891     3.97853    -0.62974
N      2.54975    -1.82244    -1.11072
H      1.93589    -1.02772    -1.00345
H      2.59516    -2.29683    -0.21866
H      3.47263    -1.47318    -1.32762
N     -1.65220     2.46091    -0.06293
H     -2.28603     3.22080     0.14314
H     -2.13880     1.81417    -0.67183
H     -1.50566     1.94827     0.79826
N     -1.95994    -0.74308     0.07791
H     -1.06700    -0.35154     0.36467
H     -2.33265    -1.26145     0.86123
H     -1.75592    -1.41317    -0.65150
N      0.99101     0.58637     1.15730
H      1.13531     1.40197     0.56328
H      1.04868     0.89605     2.11965
H      1.79048    -0.01737     1.02049
