 20
-283.0076758804218
N      2.79921     0.71494    -1.94611
H      2.62516     1.02633    -2.89285
H      2.02062     1.04533    -1.37985
H      3.62678     1.19739    -1.62006
N      1.31431    -1.84346    -0.50420
H      1.47343    -1.66668    -1.48874
H      1.94088    -1.20139    -0.03175
H      1.63826    -2.78020    -0.30786
N     -1.56165    -0.62012    -0.04008
H     -2.06094    -1.20538     0.61893
H     -1.98718    -0.76719    -0.94792
H     -0.60543    -0.96604    -0.10620
N      0.30451     1.85859     0.07901
H     -0.43998     1.16636     0.09689
H      0.55639     2.04996     1.04100
H     -0.08760     2.71419    -0.29528
N     -3.50927    -0.16277     2.57987
H     -3.02612     0.31479     1.82959
H     -4.42241     0.26326     2.67297
H     -2.99232     0.02463     3.42933
