 28
-396.2172243109962
N      2.56622    -2.73698    -0.75589
H      3.10519    -3.32317    -1.37883
H      1.64561    -2.62779    -1.16074
H      2.98556    -1.81144    -0.76365
N      3.33660     0.63161    -0.76046
H      4.05162     0.81269    -0.06698
H      3.68090     0.99900    -1.63829
H      2.53140     1.19985    -0.50681
N      0.36585    -0.81161     0.19498
H      0.16454    -0.12579     0.91471
H      0.83902    -1.59588     0.63192
H      1.04545    -0.38128    -0.42369
N     -3.50633     0.46872     0.84256
H     -4.05641     1.09520     0.26564
H     -3.20803    -0.31267     0.25244
H     -4.13026     0.10175     1.55246
N     -2.34437    -1.71213    -0.80139
H     -1.41229    -1.40780    -0.50864
H     -2.46498    -2.66615    -0.48197
H     -2.36607    -1.72509    -1.81362
N     -1.11360     1.84148     1.92772
H     -1.42812     2.77315     2.17708
H     -1.92706     1.33956     1.54464
H     -0.85720     1.38972     2.79921
N      0.59513     2.33247    -0.50052
H      0.49316     3.30527    -0.76583
H      0.08037     1.79607    -1.19349
H      0.08221     2.18930     0.37412
