 24
-339.610339215917
N      1.71801    -2.73845     1.80440
H      2.00732    -3.61043     1.38017
H      0.70744    -2.74991     1.86820
H      1.96307    -1.98553     1.16818
N      0.64134     2.35528     0.17613
H      0.80047     2.71402    -0.75958
H     -0.35444     2.12278     0.23898
H      0.81109     3.12917     0.81022
N      0.15479    -1.16545    -1.14960
H      0.84792    -0.54277    -0.74262
H      0.10957    -1.96954    -0.53754
H      0.53327    -1.49453    -2.02925
N     -2.27855     1.68968     0.35942
H     -2.87629     2.50786     0.38532
H     -2.53027     1.14887    -0.46616
H     -2.51529     1.12750     1.17014
N     -2.57392    -0.15653    -2.10372
H     -1.66868    -0.42836    -1.71901
H     -3.09985    -1.00564    -2.27105
H     -2.39783     0.27377    -3.00458
N      2.47131     0.17424     0.83058
H      2.43393    -0.06595     1.81458
H      3.38840     0.57465     0.66912
H      1.77690     0.91367     0.65570
