 36
-509.4266445232629
N      1.12129     0.04793     0.46669
H      0.82561     0.98005     0.20337
H      1.91570     0.14481     1.09303
H      0.34993    -0.34291     0.99607
N     -1.62598     2.00217     0.45947
H     -2.29816     2.74344     0.29136
H     -1.33334     1.63676    -0.45125
H     -2.14659     1.24818     0.89875
N     -1.01208     0.50823    -1.98596
H     -1.52219    -0.19539    -1.46870
H     -1.61097     0.83272    -2.73106
H     -0.19577     0.06387    -2.37968
N      3.14707     1.41084     2.74042
H      3.87404     2.07861     2.51118
H      2.25718     1.89312     2.61564
H      3.23039     1.20785     3.72992
N      0.33700     3.00087     2.44338
H     -0.18113     2.98933     3.31741
H     -0.27840     2.56970     1.74091
H      0.43065     3.97900     2.18646
N     -2.63460    -0.98023     1.69727
H     -3.57521    -1.35467     1.71526
H     -2.24868    -1.12125     2.62327
H     -2.08816    -1.55139     1.05060
N      2.15003    -1.01655    -2.08630
H      1.83868    -0.61739    -1.19443
H      2.84180    -1.72544    -1.86741
H      2.65365    -0.28680    -2.57828
N     -0.86854    -2.50144    -0.16947
H      0.00344    -1.98513    -0.24541
H     -0.64845    -3.37406     0.29335
H     -1.14505    -2.74877    -1.11356
N     -0.48169    -2.63834    -3.53509
H     -1.00726    -1.87515    -3.93859
H      0.32332    -2.21787    -3.07858
H     -0.13861    -3.20387    -4.29850
