 40
-566.0249023894233
N      1.51057    -2.03414     1.50058
H      2.00033    -1.93938     0.62514
H      1.39208    -1.10097     1.87574
H      2.09944    -2.56304     2.12524
N     -3.29648     1.10486     1.41082
H     -4.03831     1.20840     0.73173
H     -3.66990     1.41062     2.29948
H     -2.57623     1.76497     1.13860
N      0.14796     0.63182     1.80436
H     -0.69438     0.44413     2.32939
H      0.18366     1.62875     1.63975
H      0.02811     0.16495     0.91443
N     -1.50984     2.82525    -0.50391
H     -1.98948     3.22985    -1.29541
H     -0.54224     3.11437    -0.55774
H     -1.49481     1.82353    -0.65188
N     -0.14923    -0.51118    -1.70792
H      0.58122    -1.20897    -1.74273
H     -0.93120    -0.97454    -1.25802
H     -0.43267    -0.33640    -2.66224
N     -1.88907    -2.03588     0.75185
H     -0.96755    -2.07616     1.17659
H     -2.30268    -1.15387     1.03609
H     -2.43488    -2.76629     1.18302
N      1.88342     2.23365    -0.56746
H      1.46084     1.43986    -1.03312
H      2.81054     2.35520    -0.94460
H      1.98119     1.95872     0.40139
N     -0.42424    -3.94323    -2.19143
H      0.56408    -3.79697    -2.05536
H     -0.72481    -3.27044    -2.88074
H     -0.87127    -3.66668    -1.32807
N      3.12432    -2.32926    -1.97302
H      3.17590    -2.24904    -2.98004
H      3.68837    -1.57541    -1.60063
H      3.59326    -3.19069    -1.72658
N      0.52993     4.11650     1.87826
H     -0.42926     4.21560     1.57634
H      1.10713     4.24785     1.06031
H      0.73707     4.84812     2.54033
