 24
-339.6134730492238
N     -2.19853    -0.89550    -0.59316
H     -3.19867    -0.88314    -0.75792
H     -1.77412    -1.27527    -1.43321
H     -2.01750    -1.55622     0.16084
N      1.58980     2.36000    -1.82573
H      0.72621     2.23113    -1.30589
H      2.05772     3.16710    -1.43445
H      1.33533     2.58769    -2.77774
N      2.66227    -0.75554    -0.87609
H      2.99514    -1.34145    -1.63123
H      1.75570    -1.10909    -0.60089
H      2.49483     0.17334    -1.25390
N     -1.37943     1.97918    -0.31050
H     -1.87794     2.41640     0.45716
H     -1.78412     2.36664    -1.15776
H     -1.62335     0.98543    -0.31398
N     -1.17132    -2.50436     1.79876
H     -1.66594    -2.34781     2.66967
H     -0.46121    -1.77340     1.72589
H     -0.69822    -3.39766     1.87584
N      0.85119    -0.22362     1.81902
H      1.73362    -0.32432     1.32709
H      0.37028     0.55567     1.38171
H      1.06750     0.06400     2.76545
