 36
-509.43155724318547
N     -1.28736     2.04874    -1.29773
H     -1.44608     2.98172    -1.65630
H     -0.29740     1.98296    -1.04642
H     -1.43067     1.40842    -2.06905
N     -0.58824     1.38343     3.04403
H     -0.93428     0.87251     3.84752
H     -0.33339     2.30145     3.38601
H     -1.38509     1.49601     2.41659
N      3.07304    -0.58481    -0.18880
H      2.47943    -0.75517     0.61836
H      2.76107    -1.22106    -0.90998
H      4.01582    -0.84385     0.06480
N     -1.55337    -1.14842    -0.58091
H     -0.96825    -0.86797    -1.36897
H     -2.50026    -0.87951    -0.80427
H     -1.28579    -0.54326     0.18722
N     -2.97216     1.38281     1.03036
H     -2.40834     1.58804     0.19128
H     -3.32231     0.43570     0.94145
H     -3.77862     1.99535     1.02738
N      0.65887    -1.49505     2.01262
H      0.40142    -0.57862     2.36759
H     -0.07182    -1.76243     1.36315
H      0.62369    -2.13756     2.79189
N      0.45283    -0.37831    -2.73712
H      0.75835    -1.28640    -2.40373
H      0.63437    -0.33917    -3.72978
H      1.03875     0.32089    -2.29994
N      1.51935     1.94329    -0.18314
H      2.02374     2.79369     0.02846
H      0.90619     1.77684     0.60674
H      2.18691     1.17536    -0.21707
N      0.83760    -3.13735    -1.08984
H      1.21617    -3.01823    -0.15964
H     -0.14855    -2.90776    -1.02611
H      0.91889    -4.11704    -1.31745
