 24
-339.6094359916216
N      0.38573     0.43452    -1.21365
H      1.26007     0.41006    -1.72468
H     -0.18446     1.14903    -1.64742
H      0.60987     0.75379    -0.27897
N      2.14808     2.97868     2.58493
H      2.83943     2.88839     3.31838
H      1.37004     3.50328     2.96573
H      1.81045     2.04215     2.37996
N     -0.00685    -2.93587    -1.78608
H      0.09452    -1.93376    -1.65755
H      0.90888    -3.31074    -1.99687
H     -0.59016    -3.07804    -2.59976
N     -2.27735     1.25343    -2.94393
H     -1.98673     0.40007    -2.48832
H     -3.17155     1.51837    -2.55419
H     -2.40883     1.04447    -3.92385
N     -1.48702    -1.56421     1.09077
H     -1.47245    -0.85601     0.36987
H     -1.19503    -2.42134     0.64077
H     -2.44667    -1.68088     1.38185
N      1.26929    -0.15730     2.06214
H      0.33443    -0.42546     2.35119
H      1.39470    -0.60257     1.16142
H      1.92173    -0.60381     2.69631
