 36
-509.4298549053616
N     -2.80082    -0.57067     0.04378
H     -2.78989    -0.34043    -0.94896
H     -2.14606    -1.33240     0.17648
H     -3.71284    -0.93650     0.28242
N      1.57314     2.65898     1.97837
H      0.90184     1.90697     1.81044
H      1.08240     3.42757     2.41787
H      2.24020     2.31064     2.65678
N      2.55254     1.13793    -0.84917
H      3.52790     1.23317    -1.09376
H      2.44478     0.23339    -0.40960
H      2.34921     1.82124    -0.12427
N      1.08558    -3.66674    -0.28079
H      1.91281    -3.82298    -0.84381
H      0.75826    -2.72095    -0.47980
H      0.37611    -4.30906    -0.61165
N     -2.69016     0.77996    -2.64072
H     -1.91701     1.30106    -2.21136
H     -2.66506     0.92681    -3.64196
H     -3.54219     1.20897    -2.29918
N     -0.49936     0.48476     1.67022
H     -0.74399     0.77131     2.61229
H     -1.37028     0.29352     1.17337
H     -0.00049    -0.39924     1.77267
N     -0.55871     2.37680    -1.36357
H      0.36226     2.02573    -1.60811
H     -0.57544     3.35571    -1.61704
H     -0.61187     2.33039    -0.35375
N      0.17071    -0.88361    -1.14661
H     -0.65577    -0.91524    -1.72789
H      0.00714    -0.20475    -0.40568
H      0.91119    -0.49965    -1.72271
N      1.12249    -2.29206     2.52083
H      1.18197    -2.89812     1.70719
H      2.04614    -2.23781     2.93155
H      0.52327    -2.75025     3.19685
