 36
-509.42795526054596
N     -2.42277     3.56016    -0.94349
H     -2.67117     2.57324    -1.00410
H     -3.10493     3.98925    -0.32939
H     -2.57112     3.94836    -1.86754
N      0.38636    -0.60015     2.67974
H      0.08518    -0.29662     3.59489
H      1.18680    -1.20877     2.81768
H      0.74036     0.21881     2.20048
N      1.28744    -1.35518    -0.47374
H      2.27292    -1.14090    -0.54726
H      0.81672    -0.49531    -0.19128
H      1.18268    -1.99974     0.29819
N      3.38604    -1.71439     1.99049
H      3.26569    -0.77968     1.60773
H      4.32246    -1.77250     2.36519
H      3.33296    -2.34965     1.20530
N     -3.10174     0.30841    -1.22118
H     -2.73783    -0.18643    -0.40348
H     -4.06505     0.01693    -1.33558
H     -2.59906    -0.09170    -2.00672
N     -1.70259    -1.56402     0.62948
H     -2.31351    -2.31389     0.93379
H     -1.21874    -1.90825    -0.19270
H     -0.99984    -1.40337     1.35356
N     -0.51808    -1.34518    -3.06515
H      0.23127    -1.46857    -2.38741
H     -0.73685    -2.26116    -3.43361
H     -0.13710    -0.80260    -3.82924
N      2.95352     1.39864     0.55949
H      3.55640     1.65627    -0.21007
H      2.00044     1.46269     0.21839
H      3.06162     2.11822     1.26092
N     -0.24552     1.24132    -0.03067
H     -0.43790     2.21561    -0.24157
H     -0.60778     0.71240    -0.81473
H     -0.84325     1.00177     0.75391
