 24
-339.61208664513197
N     -0.19783    -2.14230     1.04809
H     -0.75819    -1.30668     1.18635
H     -0.75530    -2.78609     0.50282
H     -0.08034    -2.56583     1.96083
N     -1.67560     0.85533     1.56287
H     -0.88369     1.36458     1.17851
H     -2.50550     1.15276     1.06782
H     -1.78074     1.14506     2.52624
N      1.36767    -0.41014    -1.99190
H      2.21800    -0.27919    -1.45950
H      0.73251    -0.88936    -1.36765
H      1.58396    -1.04188    -2.74942
N     -3.38769     0.59434    -1.48608
H     -3.61925    -0.23838    -2.01171
H     -3.25866     1.34619    -2.15066
H     -2.48623     0.42994    -1.05975
N      1.05175     2.23686     0.05275
H      0.90644     1.84915    -0.87051
H      1.37227     3.18666    -0.06548
H      1.81589     1.70638     0.44932
N      3.01419    -0.71764     1.11703
H      3.62713    -1.50642     0.95628
H      3.15515    -0.42236     2.07409
H      2.06346    -1.07038     1.06050
