 36
-509.4293168588603
N      2.52848     0.52350    -0.26165
H      1.85624    -0.08566    -0.70914
H      3.19187     0.79574    -0.97325
H      3.03350    -0.06460     0.38846
N     -0.00033     2.95055    -0.28825
H      0.92543     2.57253    -0.11964
H      0.08209     3.95402    -0.37810
H     -0.55147     2.76490     0.54487
N     -1.74934     1.50295     2.20413
H     -1.09678     0.75794     2.40874
H     -2.22071     1.72966     3.06694
H     -2.44065     1.10069     1.58380
N      0.98799    -2.77556    -1.69437
H      0.54443    -3.66349    -1.49399
H      0.34121    -2.05770    -1.37713
H      1.06339    -2.70897    -2.70145
N     -1.59820     1.48762    -2.39379
H     -1.08260     0.62213    -2.51077
H     -1.58167     1.95909    -3.29033
H     -1.05258     2.04307    -1.73009
N     -0.70248    -0.69447    -0.25791
H     -0.42410     0.27631    -0.19825
H     -1.71204    -0.69767    -0.32920
H     -0.44766    -1.11861     0.62637
N     -4.13602     0.67024    -0.59762
H     -4.71696     0.04291    -1.14115
H     -3.38482     0.98671    -1.21090
H     -4.69820     1.48670    -0.39154
N      1.20960    -0.72005     2.57546
H      1.74541    -1.49438     2.19678
H      1.50916     0.09868     2.05810
H      1.50293    -0.59020     3.53350
N      3.32605    -2.86697     0.80317
H      2.76600    -2.75897    -0.03874
H      3.11443    -3.78502     1.17316
H      4.29620    -2.88010     0.51961
