 36
-509.42723651773656
N     -0.47988     2.63355    -1.03549
H      0.12164     3.04282    -0.33118
H      0.09830     2.04908    -1.65364
H     -0.85185     3.40141    -1.57948
N     -0.06498    -0.46031     3.50896
H      0.11938    -0.75031     4.46270
H      0.83654    -0.40093     3.03784
H     -0.42759     0.48558     3.56685
N     -1.09182    -1.54160    -3.04860
H     -1.65589    -1.13991    -2.28933
H     -1.49485    -1.19919    -3.91325
H     -1.22832    -2.54521    -3.04767
N      2.63237    -0.68616     2.01700
H      3.43455    -0.26461     1.56928
H      2.85869    -1.65779     2.18599
H      1.88702    -0.66685     1.32392
N     -2.72909    -0.20544    -1.00821
H     -2.34961     0.72958    -0.90540
H     -3.70410    -0.08848    -1.24611
H     -2.69791    -0.63277    -0.08569
N      0.16207    -0.27161     0.18064
H      0.18162    -0.85388    -0.64998
H     -0.52028    -0.69765     0.79922
H     -0.21378     0.63100    -0.10385
N      1.05440     0.69102    -2.64554
H      0.46086    -0.12972    -2.77566
H      1.37779     0.95918    -3.56696
H      1.87624     0.39553    -2.12915
N      2.59543     1.73650     0.09607
H      2.38812     2.57472    -0.42500
H      1.76700     1.15000     0.08787
H      2.76106     1.98081     1.06292
N     -2.06802    -1.88617     1.88059
H     -2.90882    -2.09302     2.40753
H     -1.68218    -2.78020     1.59413
H     -1.39347    -1.46052     2.52245
