 36
-509.42927404592575
N     -0.59119     1.43481    -1.44883
H     -0.78523     1.48111    -0.44743
H      0.40165     1.28357    -1.57696
H     -0.80263     2.34067    -1.84717
N      2.75562     0.36890    -0.71370
H      2.36227     1.09610    -0.10547
H      3.59852     0.73111    -1.14438
H      3.04661    -0.37539    -0.08873
N      1.68924     2.31876     1.17546
H      2.27546     3.13972     1.23326
H      1.67898     1.88962     2.09538
H      0.74544     2.63634     0.99498
N      1.47213    -0.11577     3.68902
H      0.83678    -0.35527     4.43947
H      2.40948    -0.29297     4.02628
H      1.30160    -0.76490     2.92753
N     -1.39400     1.19584     1.46556
H     -0.67543     0.65707     1.93408
H     -1.96286     1.63130     2.17600
H     -1.98624     0.53407     0.97264
N     -2.90140    -1.56111     0.12472
H     -2.94994    -1.31147    -0.86158
H     -2.35840    -2.41400     0.16823
H     -3.83465    -1.79331     0.43497
N     -2.38416    -0.60829    -2.75695
H     -1.76578     0.08351    -2.31721
H     -1.80570    -1.25187    -3.28099
H     -2.98736    -0.12916    -3.41230
N      0.58925    -1.52456     0.80302
H      0.88408    -0.76788     0.19499
H      0.80310    -2.37669     0.30483
H     -0.42155    -1.46187     0.85474
N      0.65179    -1.55218    -2.57592
H     -0.11049    -1.57536    -1.91092
H      1.46012    -1.20674    -2.07326
H      0.40050    -0.82777    -3.23455
