 36
-509.4305658940687
N      2.91236     1.12685     1.22781
H      3.80814     1.05900     0.75838
H      2.51460     0.17962     1.24862
H      3.11375     1.38368     2.18816
N     -1.37088    -1.60053    -0.32214
H     -1.89501    -2.46424    -0.33147
H     -0.47768    -1.79496    -0.75864
H     -1.18969    -1.35809     0.64875
N     -1.64223     0.73774    -2.16029
H     -1.65620    -0.08670    -1.55090
H     -2.41105     1.32798    -1.86891
H     -1.84941     0.42807    -3.10335
N      1.74330    -1.58605     1.23667
H      1.64445    -1.93982     0.28736
H      2.31189    -2.25084     1.74580
H      0.82839    -1.59573     1.67190
N     -3.50730     1.28567     0.34220
H     -3.22357     0.32530     0.20974
H     -4.39314     1.27913     0.82732
H     -2.81734     1.69987     0.95166
N     -1.34764    -0.19486     2.61690
H     -0.94632     0.53734     2.01401
H     -0.98853    -0.05190     3.55277
H     -2.34498    -0.02507     2.66402
N      1.42839     0.63035    -1.95958
H      0.41732     0.78249    -1.95024
H      1.83384     1.16953    -1.20350
H      1.77794     1.03573    -2.82093
N     -0.11658     1.86935     0.89768
H     -0.46162     1.87599    -0.05605
H     -0.19968     2.81621     1.24774
H      0.87873     1.65204     0.87142
N      1.90715    -2.28671    -1.88601
H      1.47504    -2.66019    -2.72304
H      1.79799    -1.26536    -1.91962
H      2.89981    -2.47837    -1.96891
