 36
-509.4291756313004
N     -1.69931     2.63223    -1.40743
H     -0.74725     2.38785    -1.16672
H     -1.79130     3.63445    -1.32097
H     -2.30331     2.19576    -0.71882
N      0.00895    -2.08484     0.51471
H      0.92270    -1.69393     0.30905
H      0.11147    -3.09222     0.47441
H     -0.56631    -1.81729    -0.28690
N      4.08032    -0.74058    -1.14372
H      3.55761    -0.49326    -0.30164
H      4.15426    -1.75121    -1.16140
H      5.01855    -0.37338    -1.03541
N      2.52243    -0.09090     1.46221
H      2.24858    -0.97226     1.88549
H      3.08971     0.38437     2.15823
H      1.64036     0.42695     1.36165
N     -3.32662     0.28312     0.25402
H     -4.32233     0.14874     0.34152
H     -2.95990    -0.46240    -0.32607
H     -2.91403     0.16207     1.17073
N     -1.77342    -1.26187     2.73777
H     -1.54195    -1.75190     3.59272
H     -2.67293    -1.62050     2.43937
H     -1.09811    -1.53976     2.01454
N      1.51497     0.77289    -1.79535
H      2.32320     0.21227    -2.04757
H      1.40941     1.49204    -2.50131
H      1.76475     1.23184    -0.92924
N     -0.10950     1.22212     1.21722
H     -0.53278     0.79777     2.03601
H     -0.34567     2.20536     1.22478
H     -0.57690     0.82061     0.41299
N     -1.03506    -0.70593    -1.92565
H     -1.64738     0.08399    -2.09044
H     -0.08115    -0.33014    -1.83669
H     -1.05682    -1.27620    -2.76366
