 24
-339.6067632517819
N      0.91049    -0.31066    -1.00291
H      1.87136    -0.31159    -0.68408
H      0.91070     0.08887    -1.93271
H      0.39503     0.33754    -0.41849
N     -0.68745     2.97985     2.25533
H     -0.85428     2.44203     1.40902
H     -0.90442     2.38064     3.04242
H     -1.35342     3.74215     2.26247
N     -0.34154    -3.29437     0.41333
H      0.07529    -2.40521     0.15813
H     -0.24408    -3.38189     1.41667
H      0.23639    -4.01052    -0.00748
N     -1.88466     1.43446    -0.18085
H     -2.61087     1.55170     0.52016
H     -2.13796     2.05382    -0.94603
H     -1.97008     0.47435    -0.53189
N     -2.26471    -1.26058    -1.36342
H     -1.32425    -1.46542    -1.68065
H     -2.48230    -1.97730    -0.68105
H     -2.88873    -1.39027    -2.14879
N      4.30378     0.42385    -0.01052
H      4.89697     0.71833    -0.77505
H      4.14765     1.23515     0.57409
H      4.82584    -0.24515     0.53948
