 36
-509.42619313161094
N      2.57540     0.54374    -1.39753
H      3.15383     0.19793    -0.64016
H      2.62886    -0.16646    -2.12137
H      3.02221     1.37950    -1.75450
N     -2.94569    -0.00740     0.13929
H     -3.52287    -0.45250    -0.56564
H     -3.54537     0.62582     0.66097
H     -2.29000     0.58242    -0.36309
N      3.16921    -2.34968    -2.25224
H      3.56496    -2.99633    -2.92073
H      3.90126    -2.10263    -1.59830
H      2.47268    -2.84645    -1.70867
N      3.65057    -1.61929     1.11321
H      2.74057    -2.02208     0.91610
H      4.23930    -2.37090     1.44789
H      3.51438    -0.98885     1.89316
N     -1.51781    -1.83680     1.99403
H     -1.54985    -1.45019     2.93130
H     -2.06153    -1.21424     1.38541
H     -2.02283    -2.71574     2.03603
N      0.16032     1.34102     0.07871
H     -0.30781     0.54038     0.48923
H      0.92928     1.00329    -0.50772
H      0.59713     1.81914     0.86122
N     -1.76840     3.63968    -0.86609
H     -1.97708     3.63649    -1.85763
H     -1.34142     4.53530    -0.66157
H     -1.05521     2.92962    -0.70439
N     -4.00935     2.55458     1.43985
H     -3.46324     2.68424     2.28348
H     -3.42561     2.88481     0.67470
H     -4.81166     3.16786     1.49927
N      0.57393    -2.46941    -0.28019
H      0.80392    -1.60201    -0.75491
H     -0.07488    -2.94685    -0.89648
H      0.03468    -2.22644     0.54712
