 24
-339.6098283638977
N      1.63639    -1.65097     1.51112
H      1.85167    -2.63751     1.41700
H      1.84730    -1.22288     0.61173
H      2.28697    -1.27579     2.19126
N      2.97110     2.32336    -1.23766
H      3.91676     2.36175    -0.87914
H      2.48916     3.15539    -0.92042
H      2.52125     1.53251    -0.79104
N      1.62629    -0.72227    -1.41839
H      1.76024    -1.60386    -1.90058
H      0.64815    -0.68235    -1.12327
H      1.77096     0.00517    -2.10728
N     -3.46972     2.26109    -0.46152
H     -3.28654     3.07091     0.11543
H     -4.42374     2.31631    -0.79172
H     -3.41043     1.45002     0.13979
N     -1.35817    -0.46920    -0.82265
H     -1.66635     0.48637    -0.95931
H     -1.80687    -1.02685    -1.53913
H     -1.67792    -0.80323     0.08388
N     -1.60023    -1.62733     2.20801
H     -1.66603    -1.11980     3.08122
H     -0.64001    -1.52769     1.88225
H     -1.73137    -2.60800     2.42049
