 40
-566.0358632356414
N     -0.18047    -2.83593     0.33308
H      0.14675    -2.11948     0.97071
H     -0.40788    -3.64358     0.89516
H      0.63697    -3.08017    -0.21498
N     -3.03160    -0.78836     1.43669
H     -3.96158    -1.14274     1.60811
H     -3.12908     0.06273     0.89112
H     -2.55647    -1.46248     0.85059
N      1.82938     0.00669    -2.91786
H      0.89185    -0.37224    -2.84954
H      1.79088     0.91033    -2.46737
H      2.02099     0.15816    -3.89602
N     -3.38531     2.17071    -0.34614
H     -3.86056     2.31979    -1.22793
H     -3.79038     2.83156     0.30622
H     -2.40975     2.42953    -0.48333
N      1.83468    -0.40045     2.53840
H      2.47157     0.33779     2.81289
H      0.90698     0.03436     2.46817
H      1.81597    -1.05408     3.31375
N     -0.77404     0.98573     2.42737
H     -1.52051     0.29828     2.34673
H     -0.94683     1.53103     3.26335
H     -0.88366     1.61863     1.64449
N      2.97635    -2.23915    -0.44250
H      3.95927    -2.42932    -0.56794
H      2.70326    -1.58287    -1.16391
H      2.87835    -1.75434     0.44024
N     -1.47073    -0.69757    -2.00616
H     -2.13478    -1.20831    -2.56968
H     -1.07987    -1.35012    -1.33457
H     -1.98994    -0.01680    -1.46876
N      2.65235     1.33959     0.03270
H      2.33752     0.65945     0.72083
H      2.98393     0.80156    -0.75864
H      3.46016     1.81576     0.41044
N     -0.41533     2.35995    -0.99794
H     -0.52486     1.48643    -1.50556
H      0.46596     2.29126    -0.49895
H     -0.32287     3.10113    -1.67972
