 28
-396.21799435582835
N      1.32675    -1.10850    -2.78802
H      0.85531    -1.73106    -3.43446
H      1.81617    -0.42064    -3.35023
H      2.03656    -1.64702    -2.29578
N      1.37623    -0.57968     1.03122
H      1.37674    -1.03924     1.93385
H      1.46472     0.41587     1.20382
H      0.44953    -0.71005     0.64193
N      3.24059    -2.32551    -0.69119
H      3.05335    -3.23756    -0.29183
H      4.19220    -2.07794    -0.44737
H      2.62428    -1.66524    -0.21567
N     -0.66483     0.59403    -1.29791
H     -0.95141     1.14941    -2.09971
H     -0.22747     1.24265    -0.65026
H      0.07184    -0.03212    -1.63830
N     -3.31061    -0.71723    -0.28838
H     -2.41026    -0.42987    -0.67094
H     -3.31826    -1.73032    -0.25648
H     -4.01490    -0.43856    -0.96128
N      0.56194     2.75019     1.71764
H      0.47233     3.62994     1.22574
H     -0.38123     2.40821     1.88924
H      0.96040     2.96763     2.62288
N     -2.48551     1.36575     2.36292
H     -2.44086     0.75395     3.16806
H     -3.29301     1.96155     2.49222
H     -2.69012     0.76975     1.56540
