 24
-339.60998410743105
N      0.46181    -2.08276     1.41447
H     -0.37728    -2.30638     0.89603
H      0.15865    -1.86255     2.35413
H      0.78399    -1.21095     1.01172
N      0.94052     2.90512     1.15166
H      0.23257     2.48340     0.55826
H      0.49417     3.12504     2.03180
H      1.20184     3.77994     0.71741
N      0.98096    -0.99835    -1.84983
H      1.30572    -1.13691    -2.79617
H      1.68445    -0.44689    -1.36681
H      0.99380    -1.90137    -1.39304
N     -1.40016     1.37637    -0.89140
H     -0.75497     0.67642    -1.24006
H     -2.11992     0.90906    -0.36072
H     -1.83604     1.82482    -1.68320
N     -3.86591    -1.24503    -0.65606
H     -3.07612    -1.10286    -1.27153
H     -3.77368    -2.17726    -0.27660
H     -4.69596    -1.22873    -1.23311
N      2.97508     0.16253     0.63769
H      3.96223     0.36593     0.57438
H      2.50056     1.01701     0.91171
H      2.85031    -0.51424     1.37825
