 20
-283.00642769044725
N     -1.20164     0.38549    -1.10979
H     -2.20017     0.22284    -1.12403
H     -0.84859     0.19611    -2.03754
H     -0.78861    -0.31691    -0.50388
N     -0.52061    -2.81779    -2.54101
H     -0.04700    -2.52047    -1.69984
H     -1.32059    -2.21009    -2.64320
H      0.09920    -2.62690    -3.31590
N      0.98669     0.96407     2.39263
H      0.59204     1.03651     3.32384
H      1.98689     1.10211     2.48931
H      0.63839     1.75942     1.86132
N      0.79688    -1.77998     0.79326
H      0.36421    -2.48510     1.37903
H      1.76854    -2.04822     0.68676
H      0.79477    -0.90715     1.31718
N     -0.17961     3.20265     0.44793
H     -0.43802     2.32660    -0.00033
H     -1.03580     3.71919     0.60979
H      0.37313     3.72760    -0.21895
