 12
-169.79732201543928
N     -1.10158     2.58674    -0.01047
H     -1.03316     2.96309     0.92547
H     -0.27941     2.88776    -0.51667
H     -1.90215     3.01778    -0.45280
N      2.20705    -1.77047     0.00498
H      2.45629    -1.99190     0.96132
H      2.75587    -0.96418    -0.26767
H      1.23050    -1.48507     0.00607
N     -1.05846    -0.93985    -0.03501
H     -1.45152    -1.25718    -0.91051
H     -1.62606    -1.31770     0.71028
H     -1.15102     0.06934    -0.00906
