 24
-339.6115873323929
N      0.35986    -2.89851     1.02310
H      0.80530    -3.50270     1.70023
H     -0.26982    -3.46939     0.47580
H      1.08590    -2.56781     0.39530
N     -0.48509     0.41195     1.74785
H     -1.47254     0.59114     1.61299
H     -0.34036    -0.58743     1.64300
H     -0.27814     0.63544     2.71175
N      2.86511    -1.70093    -1.05918
H      2.82640    -1.75556    -2.06796
H      2.70454    -0.73184    -0.80471
H      3.81130    -1.92530    -0.78200
N     -1.09587     1.24111    -1.56947
H     -0.72994     0.58843    -0.88866
H     -0.81620     0.90576    -2.48111
H     -0.61587     2.11313    -1.39391
N     -3.90590     1.23789     0.39984
H     -4.48362     0.42602     0.22583
H     -4.50802     2.05095     0.37224
H     -3.26373     1.31470    -0.38328
N      2.13719     1.57328    -0.17744
H      2.66751     2.29428     0.29130
H      1.69463     1.99720    -0.98079
H      1.38903     1.28850     0.44884
