 40
-566.0392169032608
N     -0.74651    -3.11175     0.18942
H      0.24029    -2.92932     0.04161
H     -0.97139    -2.72266     1.09493
H     -0.87014    -4.11236     0.23954
N     -2.95112    -0.90243     1.53204
H     -3.82768    -1.22614     1.91665
H     -3.12174     0.01595     1.13352
H     -2.71695    -1.50883     0.75596
N      1.86707    -0.07728    -2.79611
H      0.90534    -0.38584    -2.71026
H      1.89494     0.85690    -2.41004
H      2.06922    -0.00529    -3.78148
N     -3.37033     2.10317    -0.21808
H     -3.79752     2.06870    -1.13538
H     -3.85160     2.82647     0.30039
H     -2.40924     2.40311    -0.35573
N      2.16443    -0.10638     2.60920
H      2.40575     0.01379     3.58497
H      1.26617     0.35801     2.44922
H      2.01045    -1.09744     2.47192
N     -0.44684     1.19511     2.29943
H     -1.07314     0.40318     2.41269
H     -0.68853     1.86988     3.01259
H     -0.67577     1.60389     1.40025
N      2.51329    -2.14511    -0.11683
H      3.40806    -2.60811    -0.04311
H      2.44157    -1.77937    -1.06086
H      2.54130    -1.33346     0.48880
N     -1.55972    -0.61668    -2.12172
H     -2.26778    -0.93750    -2.76549
H     -1.30645    -1.40947    -1.54253
H     -1.99253     0.04999    -1.49535
N      2.88635     1.69262    -0.09354
H      2.79867     1.31117     0.84479
H      3.13122     0.91363    -0.69367
H      3.67363     2.32500    -0.08996
N     -0.35130     2.35259    -0.94981
H     -0.41404     1.51552    -1.51955
H      0.51253     2.27232    -0.42254
H     -0.24930     3.13915    -1.57589
