 36
-509.42755267196446
N     -0.60932     2.87531     0.47817
H     -1.11067     2.28192     1.12202
H     -1.20239     3.65355     0.23181
H     -0.41775     2.33963    -0.36052
N      2.35125     1.42127     0.87408
H      2.44063     1.53601    -0.13425
H      3.22281     1.74191     1.28223
H      1.63926     2.08271     1.16763
N      2.30435     1.94265    -2.48653
H      1.96914     2.79401    -2.91943
H      1.49320     1.36923    -2.27614
H      2.84431     1.44686    -3.18359
N      2.66046    -1.51323     0.73656
H      2.50979    -0.50012     0.77555
H      3.12056    -1.78139     1.59900
H      3.33724    -1.68212     0.00090
N     -2.70504    -2.09839    -1.53796
H     -2.75378    -1.30604    -0.88904
H     -3.46575    -2.01399    -2.19935
H     -2.88234    -2.92471    -0.98147
N     -3.01688     0.23784     0.27200
H     -2.90084     1.11668    -0.21625
H     -3.96377     0.22857     0.63116
H     -2.37969     0.24767     1.06588
N     -0.49565    -2.74384     0.65200
H     -0.44178    -3.74645     0.77368
H     -0.81692    -2.56923    -0.29495
H      0.45761    -2.39121     0.71425
N     -0.71578    -0.11682     2.27601
H     -0.87464    -1.00967     1.80709
H      0.26394     0.09855     2.14897
H     -0.84106    -0.27915     3.26740
N      0.18433     0.04246    -1.23859
H     -0.14037     0.26145    -0.30651
H     -0.59940    -0.35592    -1.73901
H      0.86596    -0.69898    -1.11730
