 20
-283.0065925478071
N      1.04139     1.27605    -1.26962
H      2.04689     1.40717    -1.25106
H      0.85618     0.27504    -1.34027
H      0.71819     1.69538    -2.13659
N      0.60659    -1.68130    -1.71945
H      0.26889    -2.25858    -0.95237
H     -0.03499    -1.81043    -2.49472
H      1.49529    -2.07047    -2.01599
N     -0.30265     0.18363     1.78206
H     -1.17102     0.69134     1.68008
H      0.08427     0.42448     2.68452
H      0.31891     0.56626     1.07852
N     -0.44806    -3.03338     0.87601
H     -1.40807    -3.31501     1.03579
H      0.13406    -3.54148     1.53138
H     -0.38048    -2.04571     1.11352
N     -0.93486     3.35783     0.34753
H     -0.34731     2.66436    -0.10764
H     -0.97474     3.10183     1.32513
H     -1.86836     3.25809    -0.03094
