 24
-339.60903509350794
N     -1.84488    -2.39536    -0.36693
H     -2.68878    -2.72931    -0.81424
H     -1.40003    -3.19822     0.05887
H     -2.13621    -1.78311     0.38900
N     -0.28393     0.84914     3.19887
H     -0.31071     1.52136     3.95577
H      0.35369     0.11378     3.48169
H      0.14088     1.31175     2.39977
N      0.67497     1.80126     0.34125
H      0.10965     0.96546     0.25152
H      0.15835     2.54980    -0.10163
H      1.52023     1.64081    -0.19717
N      1.30676    -0.69793    -3.72512
H      0.77151    -0.93767    -2.89760
H      0.68869    -0.17319    -4.32832
H      1.53537    -1.56525    -4.19058
N     -3.20794    -0.49047     2.16087
H     -3.86255     0.22432     1.87328
H     -3.61860    -0.98024     2.94402
H     -2.37583    -0.01775     2.50185
N      3.37696     1.20401    -1.69412
H      2.88254     0.63962    -2.37764
H      3.80473     1.97039    -2.19672
H      4.12483     0.63283    -1.32314
