 36
-509.4286809857224
N     -0.87071     1.51683    -0.66939
H     -0.95554     2.50372    -0.89174
H     -0.42323     1.46081     0.24009
H     -0.24831     1.05594    -1.34203
N     -0.85309    -1.73728     0.00171
H     -1.64869    -2.32647     0.22723
H     -0.53975    -1.30275     0.87704
H     -1.22605    -0.97302    -0.55060
N      2.39726     1.30797     0.52534
H      3.10853     1.98043     0.77647
H      2.83481     0.56794    -0.01226
H      1.75854     1.77397    -0.10496
N      3.62739    -1.31061    -0.81256
H      3.54212    -1.33912     0.19534
H      2.86883    -1.88477    -1.18005
H      4.50861    -1.74743    -1.04850
N     -3.87462     1.96950    -0.47439
H     -2.92471     1.67073    -0.68766
H     -4.49707     1.23414    -0.78834
H     -4.07528     2.78324    -1.04305
N     -2.69832     1.61613     2.81188
H     -3.46040     1.18633     3.31919
H     -2.63948     2.57612     3.12327
H     -2.98038     1.64571     1.83679
N      0.96006     0.06268    -2.44492
H      0.74779    -0.91852    -2.31046
H      0.90311     0.24801    -3.43688
H      1.93199     0.17244    -2.18422
N      0.09027    -0.31889     2.42518
H      0.39322    -0.78616     3.26854
H     -0.64737     0.33415     2.67759
H      0.87945     0.20772     2.06159
N      1.26810    -3.22583    -1.33248
H      1.79052    -3.75285    -0.63885
H      0.52748    -2.71797    -0.82175
H      0.82201    -3.91557    -1.92681
