 20
-283.0066802316369
N      2.83131    -0.22267    -0.71864
H      2.97042    -1.16666    -1.06036
H      3.58601    -0.02244    -0.07247
H      1.96935    -0.23448    -0.17397
N      0.94330     1.93929    -2.06968
H      0.77334     1.72981    -3.04627
H      1.38209     2.85214    -2.04210
H      1.63832     1.27175    -1.74394
N      0.25032    -0.54756     1.14006
H      0.47044    -0.34690     2.10741
H     -0.50166     0.07470     0.85300
H     -0.07720    -1.50421     1.09930
N     -2.17029    -3.03792     1.71506
H     -2.73390    -3.45475     0.98600
H     -2.22965    -2.03561     1.58904
H     -2.60557    -3.24693     2.60381
N     -1.78450     1.65238    -0.09109
H     -2.51615     1.53132    -0.77968
H     -1.90188     2.57191     0.31463
H     -0.90353     1.66220    -0.60094
