 24
-339.61173208788557
N      0.06497    -1.85497     1.85648
H      0.75954    -1.12024     1.81379
H      0.42403    -2.56576     2.47984
H      0.06832    -2.26054     0.92906
N     -0.08145     1.20178     1.20399
H     -0.39883     0.93990     2.12757
H     -0.34632     2.16550     1.04465
H     -0.63835     0.65105     0.55145
N      1.16676    -1.69927    -1.65589
H      1.71087    -2.54719    -1.56068
H      1.28075    -1.39021    -2.61355
H      1.61755    -1.00150    -1.06650
N     -1.85433     2.57852    -1.18560
H     -1.45297     2.82656    -2.08021
H     -1.93108     1.56647    -1.17095
H     -2.79817     2.94142    -1.16329
N     -1.95151    -0.81910    -0.53157
H     -1.21061    -1.21605    -1.09999
H     -1.75114    -1.06706     0.43133
H     -2.81212    -1.28086    -0.78833
N      2.75505     0.61393     0.37812
H      3.36380     0.57208     1.18827
H      3.10665     1.36780    -0.20203
H      1.82599     0.90146     0.69827
