 28
-396.217776505978
N      1.93253     1.24818    -2.83218
H      2.81214     1.55479    -2.43305
H      1.50400     0.60565    -2.16569
H      2.14778     0.72135    -3.66965
N      1.58995     0.54956     1.98992
H      1.33441     0.75000     1.03136
H      2.57350     0.76497     2.08020
H      1.47847    -0.45227     2.09850
N     -2.44674    -1.68336     1.21545
H     -2.83966    -1.61381     2.14757
H     -2.14922    -0.73924     0.96001
H     -3.20915    -1.94292     0.60085
N     -1.45672     1.11993     0.65781
H     -0.72833     1.22305     1.35972
H     -1.11150     1.50135    -0.22781
H     -2.22473     1.71328     0.95192
N      0.66507    -0.96987    -1.05485
H      1.14171    -1.41483    -0.28015
H     -0.26646    -0.73784    -0.72907
H      0.55540    -1.68263    -1.76565
N     -0.74761     2.50576    -1.92530
H     -1.47452     2.37330    -2.61832
H     -0.74317     3.49096    -1.68650
H      0.14341     2.29359    -2.36789
N      0.61633    -2.75410     2.04158
H      0.46386    -2.67152     3.04015
H     -0.27476    -2.53018     1.60460
H      0.81168    -3.72840     1.85246
