 36
-509.4296129847197
N      2.39206    -0.83968    -1.87806
H      3.36871    -0.70195    -2.09628
H      2.01053     0.05541    -1.60399
H      2.32794    -1.43793    -1.06042
N      1.66721     1.17576     1.34729
H      1.75638     0.23855     0.96687
H      2.58582     1.45352     1.66803
H      1.05892     1.11727     2.16291
N      0.53450     3.03971    -0.64380
H      1.24822     3.15518    -1.35465
H      0.42794     3.94264    -0.19585
H      0.92005     2.39801     0.05431
N      1.70268    -2.28509     1.13194
H      0.74746    -2.59495     0.95633
H      1.65956    -1.69985     1.95678
H      2.24520    -3.09985     1.38725
N     -1.26731    -2.88850     0.49423
H     -1.85611    -2.26155     1.02978
H     -1.18250    -2.48805    -0.44859
H     -1.75566    -3.77337     0.42267
N     -1.54630     0.36113     0.64850
H     -0.87947    -0.34062     0.35004
H     -1.03950     1.23272     0.72024
H     -2.20145     0.46281    -0.11187
N     -0.89988    -1.61509    -2.13845
H     -1.16660    -0.63501    -2.17168
H      0.07452    -1.66219    -2.41724
H     -1.44016    -2.09740    -2.84499
N     -0.86987     1.05339     3.52262
H     -1.37626     1.90727     3.71828
H     -1.28561     0.64722     2.69120
H     -1.04423     0.42307     4.29397
N     -1.79643     1.75542    -2.53908
H     -1.35323     1.87930    -3.44092
H     -1.15602     2.13617    -1.84655
H     -2.62779     2.33238    -2.53778
