 24
-339.60958567152045
N      0.36484    -1.35593     1.08937
H      0.85447    -2.20710     0.84487
H      0.81180    -0.56807     0.62939
H      0.44226    -1.21970     2.08822
N     -0.44234     2.87624    -1.65832
H     -1.21322     2.53254    -1.08711
H     -0.57356     3.87519    -1.76945
H     -0.55871     2.45954    -2.57523
N      2.19563     1.40354    -0.03194
H      2.91114     1.37509    -0.74714
H      1.37717     1.82991    -0.45941
H      2.51700     2.04543     0.68134
N     -2.83704     1.76769     0.13266
H     -2.57271     1.94864     1.09618
H     -3.81604     2.01571     0.04390
H     -2.75761     0.75856     0.00039
N     -2.45633    -1.30979    -0.12198
H     -2.26963    -1.57345    -1.08481
H     -1.55280    -1.31669     0.35469
H     -3.02535    -2.04623     0.28266
N      3.06095    -3.50880     0.58626
H      3.68164    -3.85094     1.30749
H      3.42169    -3.81106    -0.30886
H      3.11798    -2.49886     0.60144
