 28
-396.21773078984876
N      2.24578    -0.66757    -1.54924
H      2.07862     0.26708    -1.16572
H      3.12069    -0.64988    -2.05811
H      1.50934    -0.81272    -2.22976
N      1.59238     2.04895    -0.48749
H      1.34375     2.10407     0.49416
H      2.34044     2.71037    -0.64933
H      0.78029     2.37922    -1.00048
N      1.37143    -1.51953     1.47313
H      2.01701    -2.09305     1.99915
H      1.77411    -1.38145     0.54919
H      1.35162    -0.61224     1.92531
N     -0.60222     1.26306     1.64335
H     -0.12928     0.68332     0.96285
H     -1.29114     0.67781     2.09362
H     -1.09273     1.96735     1.11018
N     -1.04570    -0.87483    -0.96943
H     -1.49810    -0.92391    -0.06004
H     -1.65054    -1.36228    -1.61874
H     -0.19161    -1.41343    -0.89594
N     -1.59733     2.04896    -1.72457
H     -1.49972     2.06807    -2.73346
H     -1.35005     1.10539    -1.42184
H     -2.58736     2.16277    -1.53858
N     -1.93558    -2.03392     1.83942
H     -2.22590    -2.80874     1.25585
H     -0.91983    -2.00507     1.78564
H     -2.18436    -2.27082     2.79097
