 36
-509.4266031068018
N     -1.81798    -0.47281    -1.56863
H     -2.32414    -1.14564    -2.12881
H     -2.44564     0.27744    -1.32373
H     -1.57454    -0.92414    -0.69248
N      1.06058     1.26302     1.83643
H      0.14049     1.50966     2.18722
H      1.71288     1.97210     2.14729
H      1.04842     1.28448     0.81218
N      1.97557    -1.49357     1.05796
H      1.79760    -0.65660     1.61415
H      2.77523    -1.96627     1.45617
H      2.25545    -1.15017     0.14595
N      1.19105     1.56448    -1.17439
H      1.21320     2.55486    -1.37471
H      2.02469     1.16078    -1.59161
H      0.39054     1.17998    -1.66095
N     -2.11331     2.27104     2.36535
H     -1.55316     2.64087     1.60709
H     -2.55288     3.06307     2.81577
H     -2.83191     1.69742     1.93456
N     -3.78971    -0.03002     1.10941
H     -4.15312    -0.30702     0.20724
H     -4.41517    -0.42115     1.80372
H     -2.88344    -0.48878     1.21331
N      0.93169    -1.70446    -2.11519
H      0.72810    -2.42709    -2.79611
H      0.99593    -2.17327    -1.21804
H      0.10902    -1.10657    -2.06290
N     -1.06810    -1.23682     1.57541
H     -0.09784    -1.38031     1.29403
H     -1.07430    -0.38180     2.11991
H     -1.29367    -1.98606     2.21801
N      3.58539    -0.04025    -2.89123
H      4.37698    -0.57589    -2.55894
H      2.74981    -0.59072    -2.70175
H      3.67359     0.03645    -3.89660
