 28
-396.2183058428952
N      1.27306    -0.21030    -0.62557
H      1.11275    -0.52576    -1.57427
H      1.93522     0.55680    -0.67351
H      0.39315     0.18760    -0.32066
N     -1.17453     1.99849    -1.70110
H     -1.59528     1.78413    -0.80291
H     -1.04493     1.10265    -2.15459
H     -1.86023     2.50274    -2.24273
N      2.15017    -2.11878     1.55324
H      2.64244    -1.52144     2.20755
H      1.84024    -1.51551     0.78858
H      2.83309    -2.76461     1.17527
N     -1.57495    -1.39024    -1.50747
H     -2.14762    -2.15182    -1.83776
H     -0.74909    -1.78011    -1.07699
H     -2.07585    -0.92321    -0.76422
N     -1.65463     0.68513     1.40517
H     -2.40055     0.96113     2.03454
H     -1.41405    -0.29240     1.60299
H     -0.84285     1.23569     1.67316
N      1.97031     3.14018    -1.00556
H      1.93020     3.86533    -0.30146
H      2.32800     3.56405    -1.85230
H      1.01135     2.86178    -1.19974
N     -0.96248    -2.16156     1.91000
H     -1.29485    -2.81485     1.20935
H      0.04680    -2.27985     1.97235
H     -1.36206    -2.45684     2.79232
