 36
-509.42804349561527
N     -1.75494     2.67425    -0.58262
H     -2.44224     3.25128    -1.05099
H     -2.15581     1.73961    -0.46865
H     -1.63648     3.04990     0.35247
N      1.27159     3.04985    -0.47929
H      0.30066     2.85752    -0.73401
H      1.25907     3.21761     0.52066
H      1.54500     3.91885    -0.91958
N      3.15074     0.28940    -0.28111
H      2.71641     1.19706    -0.41681
H      4.13338     0.38331    -0.49397
H      2.74526    -0.32677    -0.97298
N      0.11424    -3.17701    -2.02434
H     -0.51399    -3.33033    -2.80228
H      0.27448    -2.17423    -1.96637
H      0.99295    -3.61744    -2.26373
N     -3.04512    -0.06665    -0.28314
H     -3.81745     0.04918     0.36474
H     -3.45616    -0.38469    -1.15587
H     -2.45709    -0.83095     0.07598
N     -1.29354    -2.13618     0.84618
H     -0.59968    -1.71459     1.45569
H     -1.73421    -2.87881     1.37344
H     -0.81391    -2.55511     0.05161
N      1.75785    -1.42946     2.29551
H      2.36391    -1.73897     3.04022
H      1.51285    -2.24215     1.74749
H      2.29660    -0.82522     1.68254
N     -0.33187     1.24675     1.85201
H      0.15518     0.63351     2.49021
H     -1.18999     0.78674     1.58475
H      0.23044     1.32021     1.01617
N      0.27407    -0.19295    -1.37194
H     -0.70508     0.05754    -1.33544
H      0.59821    -0.25469    -0.41248
H      0.76830     0.58436    -1.78575
