 36
-509.4276242963502
N     -1.99050     2.04123    -2.40608
H     -2.49367     1.61407    -3.17664
H     -1.55922     2.88074    -2.77638
H     -1.23875     1.39376    -2.15137
N     -1.29618    -0.30638     2.19093
H     -0.68728     0.42093     2.54822
H     -1.89490     0.14654     1.49375
H     -1.89421    -0.58384     2.96003
N      3.38364     0.20480    -0.21021
H      3.88340     1.06258    -0.40734
H      3.21839     0.18416     0.79222
H      4.02556    -0.54825    -0.42310
N      0.73820    -2.50944     0.58140
H      0.01108    -2.02039     1.09222
H      1.13232    -3.19966     1.20219
H      1.46270    -1.82619     0.40382
N     -3.14460     1.02337     0.27462
H     -2.88184     1.52400    -0.57336
H     -3.62498     0.18434    -0.03391
H     -3.83908     1.57829     0.76184
N      2.20324     0.27238     2.66741
H      2.49600     0.47880     3.61120
H      1.80493     1.11491     2.26470
H      1.45153    -0.40361     2.71231
N      0.09556     0.05306    -1.57206
H     -0.00097    -0.66610    -2.28167
H      1.09089     0.20194    -1.43958
H     -0.24235    -0.36129    -0.71030
N      0.22693     2.45466     1.07396
H     -0.75817     2.24268     1.16444
H      0.30867     3.46080     1.03225
H      0.47897     2.10182     0.15941
N     -0.24631    -3.24020    -2.63935
H      0.02634    -3.09261    -1.67068
H     -1.11838    -3.75223    -2.62088
H      0.45524    -3.84192    -3.05090
