 24
-339.611925683198
N      0.22348    -1.09929     1.16628
H      0.09786    -0.36378     1.85149
H      0.78341    -1.81392     1.61175
H      0.79325    -0.69472     0.42991
N     -0.57932     1.03156    -2.05771
H     -0.86284     1.06833    -3.02711
H     -1.06619     0.24562    -1.64363
H     -0.97002     1.85297    -1.61035
N      2.56745     0.30560    -1.14535
H      3.10331     1.13915    -0.94171
H      3.02642    -0.16266    -1.91609
H      1.66337     0.61777    -1.49207
N     -2.84288     2.59076    -0.00852
H     -2.67216     2.95878     0.91818
H     -3.77711     2.86961    -0.27785
H     -2.85088     1.57778     0.07329
N     -2.85733    -0.87079     0.33530
H     -3.34697    -0.99898     1.21384
H     -3.22762    -1.56426    -0.30316
H     -1.88271    -1.10271     0.51262
N      3.54146    -2.06353     1.63151
H      4.24862    -1.64034     2.21717
H      3.96941    -2.84675     1.15722
H      3.30902    -1.38515     0.91759
