 20
-283.00645249622477
N      2.69453     1.11538    -1.33439
H      3.12609     2.01406    -1.15517
H      2.71249     0.96116    -2.33533
H      1.71769     1.19063    -1.05924
N     -0.53937     1.54809    -0.49653
H     -0.66461     0.79920     0.17707
H     -0.79459     2.41306    -0.03819
H     -1.21489     1.38092    -1.22922
N      2.32426    -1.16507     0.82327
H      2.57773    -2.05689     0.41155
H      2.56951    -0.45321     0.13846
H      2.93454    -1.03085     1.62221
N     -0.78044    -1.46319     1.31216
H     -0.97718    -1.39430     2.30421
H     -0.95302    -2.42714     1.04926
H      0.21724    -1.30547     1.18619
N     -3.76946     0.03900    -0.25911
H     -3.95195    -0.31029    -1.18950
H     -3.51598     1.01226    -0.34985
H     -2.94578    -0.43704     0.08166
