 24
-339.6098945861363
N     -1.85907    -1.04655     1.90058
H     -1.47880    -0.32884     1.29789
H     -2.61223    -1.48108     1.38172
H     -2.25643    -0.58769     2.70865
N      1.68488     2.25800     1.05411
H      1.09030     2.53686     0.28023
H      1.38692     1.32783     1.31949
H      1.49042     2.87096     1.83335
N     -0.33863     2.02832    -1.66258
H     -0.24684     1.05146    -1.40545
H     -1.32398     2.21362    -1.78829
H      0.11610     2.14355    -2.55792
N      0.33463    -1.19338    -0.57391
H      0.45146    -1.94491    -1.24237
H      1.27605    -0.89258    -0.33236
H     -0.07149    -1.60582     0.25950
N     -3.13921    -1.94800    -1.15855
H     -2.24422    -1.49769    -1.29723
H     -3.84326    -1.34474    -1.56192
H     -3.12607    -2.80760    -1.69110
N      3.56675    -0.12755     0.29047
H      3.23957     0.82375     0.42618
H      4.04860    -0.40368     1.13696
H      4.25582    -0.10708    -0.45036
