 20
-283.00824678079726
N      0.87810     2.62630     0.20288
H      1.26035     3.29101    -0.45746
H      0.04675     2.22843    -0.22647
H      0.56948     3.15070     1.01149
N     -1.38505    -1.83039    -1.49327
H     -2.10938    -2.52837    -1.60246
H     -0.65753    -2.04593    -2.16316
H     -0.98116    -1.96440    -0.57006
N      2.63668    -0.19313     0.88268
H      3.36792     0.08708     1.52328
H      3.08529    -0.48882     0.02504
H      2.09602     0.63942     0.66071
N     -0.08972    -2.14539     1.66742
H      0.25480    -2.99669     2.09147
H      0.71757    -1.55465     1.48465
H     -0.64803    -1.66711     2.36246
N     -2.03890     1.53382    -1.24525
H     -2.23430     1.79953    -2.20211
H     -2.89568     1.65831    -0.72137
H     -1.84165     0.53649    -1.25258
