 36
-509.4281721549146
N      0.58688     0.56309    -3.50389
H      0.82410    -0.09095    -2.73566
H     -0.04669     0.06535    -4.12154
H      1.42657     0.73054    -4.04741
N      0.77371     1.69407     2.81969
H     -0.11366     1.97400     3.22363
H      1.39703     2.48237     2.94608
H      0.60908     1.57708     1.81277
N     -2.04383     1.91194    -2.57430
H     -2.21967     2.67221    -3.21878
H     -1.10888     1.54548    -2.76589
H     -2.70749     1.17937    -2.79729
N      1.26029    -1.38520    -1.44041
H      1.67827    -2.16290    -1.94544
H      1.92821    -1.09182    -0.72385
H      0.46098    -1.75961    -0.92616
N     -2.94949     0.54140     0.00261
H     -2.18353     0.40175     0.64913
H     -2.59799     1.14935    -0.73353
H     -3.66390     1.04200     0.51481
N      0.31171     1.29966    -0.07477
H     -0.38264     1.97345    -0.37083
H      1.06846     1.32433    -0.74563
H     -0.09567     0.37770    -0.16183
N      2.69832    -0.78691     1.04469
H      1.92565    -1.38119     1.31899
H      3.54778    -1.17907     1.42194
H      2.54045     0.11362     1.47238
N      0.34415    -1.37210     3.24237
H     -0.27060    -1.46913     4.04025
H      1.19629    -1.87140     3.46431
H      0.59250    -0.38684     3.16251
N     -1.10158    -2.17077     0.35949
H     -1.42768    -3.12767     0.35184
H     -0.82142    -1.95004     1.31325
H     -1.89773    -1.58575     0.11569
