 36
-509.4279533128331
N     -0.67014     1.68643    -1.33986
H     -0.61315     2.56296    -1.84146
H     -0.91053     1.89819    -0.37473
H      0.26119     1.28884    -1.35389
N      2.53525    -0.25312    -1.41413
H      3.29265    -0.54618    -0.80389
H      2.93181    -0.18487    -2.34434
H      1.85332    -1.01954    -1.41978
N      1.91252     1.82795     1.13475
H      2.53754     2.61921     1.04862
H      0.97245     2.19872     1.19350
H      1.96536     1.30637     0.26335
N      2.36217    -0.00280     3.42032
H      3.30969    -0.36060     3.39287
H      2.29697     0.58273     4.24439
H      2.23765     0.61068     2.60843
N     -1.63612     1.77395     1.73099
H     -1.14720     0.86790     1.71912
H     -1.54323     2.15226     2.66671
H     -2.62403     1.58131     1.60265
N     -2.16108    -1.88679    -0.72986
H     -2.45969    -1.44951    -1.60086
H     -2.90539    -2.50698    -0.43390
H     -2.12630    -1.12912    -0.05573
N     -2.75548     0.16764    -2.91580
H     -2.04067     0.60011    -2.32540
H     -2.42925     0.23481    -3.87266
H     -3.58421     0.74645    -2.84065
N     -0.23352    -0.81885     1.61854
H      0.21924    -0.98792     0.72640
H      0.49260    -0.78707     2.33155
H     -0.79475    -1.64258     1.79471
N      0.63379    -2.56454    -1.44940
H      0.59450    -2.80629    -2.43485
H      0.94888    -3.40312    -0.97267
H     -0.33475    -2.37410    -1.16322
