 36
-509.43088928790866
N     -1.25986     2.50590    -1.50309
H     -1.17020     2.74759    -0.51949
H     -0.32167     2.31502    -1.82629
H     -1.57305     3.32786    -2.00098
N     -0.60584     2.36878     1.53607
H      0.22819     1.83395     1.74743
H     -0.83416     2.89392     2.36988
H     -1.35969     1.69881     1.35458
N      3.31007    -0.12947     1.85956
H      2.33761    -0.40534     1.69989
H      3.89205    -0.88875     1.52610
H      3.45461    -0.06359     2.85924
N      0.38234    -2.96282    -1.15569
H      0.56344    -2.00471    -1.48431
H      1.26501    -3.46414    -1.16959
H     -0.19670    -3.40387    -1.86343
N     -2.74879     0.52186     0.67648
H     -2.52803    -0.46931     0.62325
H     -3.74254     0.60109     0.83851
H     -2.54853     0.92850    -0.23332
N      0.75684    -0.22618    -2.20281
H      1.33212     0.40373    -1.62827
H      1.15286    -0.29419    -3.13241
H     -0.15281     0.21013    -2.30841
N     -2.45421    -2.76321     0.23027
H     -3.04857    -2.70176    -0.58742
H     -1.49153    -2.81187    -0.09639
H     -2.67795    -3.63458     0.69300
N      2.13418     1.68608    -0.45156
H      2.80350     2.32858    -0.85515
H      1.41052     2.25262    -0.02048
H      2.60829     1.17047     0.28872
N      0.47458    -0.81716     1.25757
H     -0.31864    -0.45430     1.77048
H      0.35946    -0.52948     0.29446
H      0.39331    -1.82611     1.26348
