 24
-339.6118569252577
N      0.23361    -4.52348     1.12781
H      0.17413    -3.56451     0.79929
H     -0.60925    -4.99247     0.81724
H      0.20074    -4.48909     2.14008
N      0.82394     3.25285    -0.97736
H      1.24884     4.10157    -0.62712
H      0.89159     3.28649    -1.98593
H     -0.16400     3.30297    -0.74229
N      1.13230    -1.96231    -0.40244
H      1.15240    -1.75332    -1.39412
H      1.52557    -1.15063     0.08024
H      1.73807    -2.76160    -0.26627
N     -2.43240     2.72538    -0.08017
H     -3.24414     2.86941    -0.66794
H     -2.25799     1.72520    -0.04934
H     -2.69280     3.01631     0.85421
N     -1.24901    -0.04834    -0.65586
H     -0.57894    -0.78573    -0.44634
H     -1.85029    -0.39264    -1.39532
H     -0.73983     0.73581    -1.04794
N      1.60088     0.54747     1.03751
H      1.59167     1.35719     0.42378
H      0.64483     0.43078     1.35218
H      2.16308     0.77149     1.84626
