 24
-339.6085507009846
N     -0.92692    -4.21364    -1.68131
H     -1.88509    -4.50486    -1.54004
H     -0.85513    -3.25909    -1.35527
H     -0.74425    -4.20271    -2.67605
N      0.03882     2.85087     2.10137
H      0.60108     2.79565     2.94045
H     -0.71599     3.49697     2.29380
H     -0.37863     1.93294     1.96469
N      1.05311    -2.88996     0.57458
H      1.25978    -3.22937     1.50445
H      0.70757    -3.67856     0.04073
H      1.93446    -2.61823     0.15841
N     -1.27928     2.19032    -1.51788
H     -0.41098     2.27463    -2.03067
H     -1.85403     2.98185    -1.77397
H     -1.02199     2.32201    -0.54759
N     -1.22113    -0.07655     0.87765
H     -0.64823    -0.90751     0.81424
H     -2.10331    -0.35933     1.27988
H     -1.40722     0.24566    -0.06652
N      1.94337     1.86939    -0.67525
H      2.94403     1.76824    -0.58138
H      1.62201     2.47077     0.07428
H      1.52560     0.96632    -0.49264
