 24
-339.6125885303221
N     -0.48831    -3.02626     0.23710
H     -0.41508    -3.64976    -0.55665
H      0.43154    -2.61645     0.37956
H     -0.68953    -3.59581     1.04948
N     -0.05026     1.22902     1.12234
H     -0.20243     1.55794     2.06761
H     -0.94455     0.87726     0.77859
H      0.55131     0.41866     1.21342
N      2.47236    -1.72532     0.65759
H      2.99280    -2.38976     0.09351
H      2.54067    -0.82574     0.18064
H      2.97505    -1.64431     1.53475
N     -2.18920     2.88115    -0.97460
H     -2.53746     3.82962    -0.98089
H     -2.71790     2.36897    -0.28128
H     -1.23815     2.90255    -0.63171
N     -2.43291    -0.28349    -0.13769
H     -1.71238    -0.99706    -0.06211
H     -3.32520    -0.74892    -0.03550
H     -2.39208     0.09209    -1.07855
N      2.35718     0.97389    -0.79293
H      2.11311     0.74628    -1.75113
H      1.50305     1.29320    -0.33932
H      3.00419     1.75309    -0.82457
