 24
-339.6156059050972
N     -0.00209    -1.78432     1.65757
H      0.10844    -2.46154     2.39857
H      0.26944    -2.23950     0.79438
H      0.69031    -1.06147     1.80811
N      0.02371     1.55408     1.51301
H     -0.50516     0.70192     1.65698
H     -0.17267     2.16083     2.29557
H     -0.37204     1.99540     0.69082
N      1.12245    -1.59964    -1.57441
H      1.48194    -1.78449    -2.50101
H      0.46737    -0.83162    -1.65428
H      1.89238    -1.23561    -1.02011
N     -1.90596     2.34935    -1.35229
H     -1.62790     2.58456    -2.29636
H     -2.05610     1.34522    -1.32273
H     -2.80314     2.78602    -1.18399
N     -2.16635    -1.01366    -0.84027
H     -1.57284    -1.63137    -1.37791
H     -1.82051    -1.06939     0.11226
H     -3.09230    -1.41760    -0.83877
N      3.07162     0.36222     0.50960
H      3.65610     0.17683     1.31406
H      3.57083     1.02119    -0.07403
H      2.24124     0.84338     0.84504
