 32
-452.8238668239461
N     -0.85093     2.68689     0.53902
H     -0.41925     3.05044    -0.30469
H     -1.70076     2.22609     0.23313
H     -1.13037     3.47618     1.10561
N     -2.75721     0.49958    -1.32119
H     -2.68403     0.08338    -2.24552
H     -2.26387    -0.13357    -0.68150
H     -3.74290     0.47399    -1.08440
N      1.86535     0.28848    -0.65578
H      2.80843     0.48419    -0.96355
H      1.33781     1.14778    -0.74580
H      1.92498     0.08261     0.33517
N     -0.32974     2.04142    -2.48682
H     -1.20571     1.70846    -2.08820
H     -0.51452     2.38595    -3.41994
H      0.25734     1.22218    -2.58243
N      1.05871    -2.57286    -1.41054
H      1.20288    -1.56867    -1.30376
H      1.94822    -3.00653    -1.18931
H      0.87339    -2.76446    -2.38781
N      0.50740     0.92556     2.50883
H      0.16323     1.44265     1.69267
H     -0.26247     0.91596     3.17201
H      1.23840     1.49100     2.93199
N     -1.42489    -1.40348     0.51166
H     -0.84515    -1.99446    -0.07823
H     -0.81318    -0.95854     1.18507
H     -2.04689    -2.01333     1.02444
N      1.83133    -2.16032     2.18478
H      1.71914    -2.85737     2.90853
H      1.33467    -2.49876     1.37130
H      1.34937    -1.31868     2.48656
