 32
-452.82492744549336
N     -1.74162    -0.06791    -3.55460
H     -1.97464     0.34232    -2.65103
H     -2.37595     0.31543    -4.24387
H     -1.93121    -1.06004    -3.47104
N     -0.51293     0.85616     2.76219
H     -1.08863     0.24014     2.20241
H     -1.07226     1.14750     3.55069
H     -0.36298     1.67702     2.18702
N     -2.47979     0.96260    -0.53994
H     -2.40562     0.06304    -0.07433
H     -1.71579     1.53139    -0.19386
H     -3.33763     1.39099    -0.22432
N      0.80357     2.18945     0.07076
H      0.75468     1.73312    -0.83739
H      1.53313     2.88699     0.00805
H      1.12335     1.48098     0.71983
N      1.71207    -1.73447    -0.22788
H      2.11221    -1.50127     0.67443
H      2.39900    -2.28974    -0.71723
H      1.59716    -0.86173    -0.72886
N      1.02245     0.56684    -2.74253
H      0.09520     0.37191    -3.12172
H      1.46306     1.25778    -3.34049
H      1.56099    -0.28520    -2.84611
N     -1.47775    -1.98015     0.92608
H     -1.16441    -1.97866     1.88794
H     -1.88728    -2.88443     0.73775
H     -0.62799    -1.91522     0.37483
N      2.59624    -0.61894     2.96334
H      1.69940    -0.14783     3.01790
H      3.30792     0.08003     3.12621
H      2.63671    -1.27177     3.73384
