 28
-396.21944033053546
N      1.84322    -0.73103    -0.16667
H      2.13430     0.14508    -0.57660
H      0.95628    -0.55096     0.28783
H      1.63691    -1.34274    -0.94495
N      0.29497     1.55625    -2.26870
H      0.34059     0.54540    -2.36582
H     -0.68327     1.77399    -2.11600
H      0.56483     1.96132    -3.15434
N      0.95987    -0.17056     3.07452
H      1.30260    -0.03181     4.01186
H      1.74197    -0.44381     2.49436
H      0.62458     0.71909     2.72791
N      0.64497     2.20683     0.71766
H      0.52971     1.94417    -0.26287
H      0.84815     3.19726     0.75230
H      1.47697     1.73121     1.03937
N     -0.84212    -1.55711    -2.28866
H     -1.50249    -0.79097    -2.26588
H     -1.18932    -2.23818    -2.94787
H     -0.88032    -1.96919    -1.36541
N     -2.18221     0.88812    -0.15633
H     -3.08392     1.22360     0.15292
H     -2.09388    -0.05692     0.19683
H     -1.47772     1.42304     0.34369
N     -0.79598    -2.24158     1.22197
H     -0.72823    -1.60764     2.01112
H     -1.29676    -3.05999     1.53658
H      0.16039    -2.52009     1.03837
