 24
-339.61257026592
N     -1.31797     0.18513     1.71024
H     -1.27060    -0.82412     1.64751
H     -1.93443     0.41304     2.47932
H     -1.76802     0.49756     0.85742
N      1.00363     2.04851     2.17765
H      1.53270     1.66442     2.95116
H      0.55880     2.89524     2.51032
H      0.26046     1.38324     1.95378
N      1.30373     1.43437    -0.88775
H      2.07130     0.79642    -1.06833
H      1.43739     2.21929    -1.51626
H      1.40242     1.78913     0.06291
N     -1.42190     0.61043    -1.66201
H     -1.27233     0.24737    -2.59944
H     -1.93845     1.47542    -1.78122
H     -0.49275     0.85694    -1.29591
N     -2.15054    -2.31954    -0.44039
H     -1.85939    -3.01749    -1.11500
H     -3.16426    -2.31641    -0.44529
H     -1.85717    -1.41160    -0.79526
N      2.72517    -1.65088    -0.65911
H      2.33055    -2.36213    -1.26024
H      3.18982    -2.11816     0.10812
H      1.93810    -1.15415    -0.26518
