 12
-169.7944402823305
N     -1.25434     2.68818    -0.05354
H     -1.01434     3.32640     0.69279
H     -0.63064     2.86877    -0.82863
H     -2.19200     2.90762    -0.36096
N      2.33156    -1.92550    -0.03085
H      2.62398    -2.77574     0.43115
H      2.40648    -2.07697    -1.02731
H      2.98571    -1.19643     0.21786
N     -1.20638    -0.86919     0.06790
H     -1.20363     0.14342     0.09371
H     -1.61784    -1.19055     0.93260
H     -0.24610    -1.18429     0.05890
