 36
-509.4305329666959
N     -1.08336     2.09922    -2.05598
H     -1.28435     2.71704    -1.27808
H     -0.11061     1.84416    -1.95491
H     -1.16548     2.64521    -2.90220
N      2.34864     0.02803     0.76272
H      2.12831     0.29274    -0.19688
H      3.27357     0.39132     0.96449
H      2.42686    -0.98053     0.73759
N     -1.77031     3.53119     1.05147
H     -1.99527     4.33942     1.61785
H     -2.64049     3.03828     0.88647
H     -1.20114     2.90395     1.61133
N      1.77713    -3.13033    -1.10690
H      1.08801    -3.66654    -1.62221
H      2.68147    -3.51747    -1.34751
H      1.61595    -3.30861    -0.11508
N     -0.87897    -0.98272     0.85024
H     -0.34361    -0.48795     0.14874
H     -1.79873    -1.15352     0.46022
H     -0.99645    -0.32632     1.61101
N     -3.44924    -0.37388    -1.38117
H     -2.74217     0.33467    -1.54722
H     -3.51051    -0.93828    -2.21683
H     -4.33519     0.09995    -1.27411
N      1.37288    -0.35044    -2.08236
H      1.91430    -0.32960    -2.93885
H      1.49417    -1.28530    -1.67155
H      0.39991    -0.25739    -2.35083
N      0.63523     1.88337     2.29408
H      1.13208     1.14213     1.78741
H      0.81486     2.74030     1.78349
H      1.07887     1.99428     3.19826
N      1.07241    -2.92014     1.88827
H      1.63145    -2.29732     2.46087
H      0.33506    -2.32401     1.49043
H      0.63938    -3.58060     2.52309
