 36
-509.4270411217085
N      0.69792     3.46140     2.57635
H      1.33352     2.67063     2.53689
H      0.89011     3.95805     3.43497
H     -0.22157     3.04760     2.67252
N      0.88437    -1.32734     0.55535
H     -0.03814    -0.90044     0.58034
H      1.19815    -1.21525    -0.40200
H      0.72146    -2.31733     0.67808
N     -0.05884     1.84977    -0.20945
H      0.12832     2.83061    -0.04627
H     -0.88038     1.61894     0.33361
H      0.70764     1.34532     0.21471
N      2.53765     0.43084     2.47714
H      3.41206     0.71731     2.05424
H      2.76538     0.01206     3.36998
H      2.14849    -0.29711     1.88693
N     -2.15282    -0.85171    -0.24177
H     -1.73043    -0.30831    -0.98538
H     -1.78022    -1.79094    -0.33223
H     -3.13953    -0.90601    -0.45564
N     -1.25913     0.50058     2.74309
H     -1.70765    -0.10529     2.06701
H     -0.26921     0.29235     2.71244
H     -1.58955     0.22516     3.65443
N      0.68140    -1.62264    -3.41310
H      0.26155    -0.70444    -3.28898
H      1.68286    -1.48485    -3.44760
H      0.40255    -1.94418    -4.33164
N     -0.47464     1.27664    -3.06312
H     -1.33394     1.73510    -3.34496
H     -0.31409     1.49827    -2.07476
H      0.26432     1.74500    -3.57689
N     -0.93427    -3.67177    -1.23512
H     -1.80700    -3.88636    -1.70134
H     -0.46795    -2.96956    -1.80555
H     -0.36989    -4.51051    -1.27761
