 32
-452.8265490818545
N     -1.68814     2.46152    -0.03844
H     -0.81544     2.31088    -0.55369
H     -2.43128     2.47260    -0.72859
H     -1.65768     3.39422     0.35639
N      0.16676    -0.62962    -3.06891
H      0.56132    -1.53950    -3.28250
H     -0.47111    -0.75545    -2.27045
H     -0.40593    -0.37316    -3.86639
N     -1.56156     0.08800     2.58853
H     -2.48955    -0.10432     2.93756
H     -1.21798    -0.77351     2.18619
H     -1.66423     0.73736     1.81596
N      0.88517     1.94134    -1.40610
H      0.73052     1.18259    -2.06846
H      1.24042     2.73665    -1.92399
H      1.62419     1.64843    -0.77644
N      2.20582    -1.26238    -0.07909
H      3.15658    -1.57809    -0.21591
H      1.87140    -0.88527    -0.95682
H      2.22576    -0.50211     0.59502
N      0.09855    -3.00585     1.10245
H      0.38534    -3.24596     2.04499
H      0.10717    -3.87200     0.57492
H      0.82909    -2.41011     0.70378
N     -1.66291    -0.98030    -0.80616
H     -1.24218    -1.59270    -0.11070
H     -1.87755    -0.10495    -0.34343
H     -2.54588    -1.39657    -1.07561
N      1.53803     1.38819     1.91390
H      0.99423     0.93187     2.63480
H      0.85663     1.82741     1.30779
H      2.06013     2.12757     2.36163
