 24
-339.6090721735516
N      0.20362    -0.13381     0.18963
H      0.25123    -0.50506    -0.75186
H     -0.66173    -0.42827     0.62131
H      0.22739     0.88146     0.16282
N      0.79417     3.04633     0.43705
H      0.40931     3.63165     1.16843
H      1.61447     2.57942     0.81650
H      1.10818     3.66142    -0.30378
N     -0.49007    -2.06130    -2.42159
H     -0.68407    -2.37800    -1.47926
H     -1.26844    -1.46852    -2.69252
H     -0.49107    -2.87462    -3.02280
N     -0.67005    -2.30119     2.47773
H     -0.58700    -1.93260     3.41667
H     -0.49894    -3.29705     2.52806
H      0.07701    -1.89063     1.93080
N     -2.61679     0.48526    -2.44525
H     -2.60305     1.21053    -3.14854
H     -3.52717     0.48432    -2.00626
H     -1.95072     0.75938    -1.73477
N      2.86318     1.00153     1.40259
H      3.05593     0.72546     2.35762
H      2.06459     0.45703     1.07949
H      3.66052     0.72650     0.84200
