 36
-509.4287717932427
N     -2.22554     2.04587    -2.48247
H     -3.07431     1.85234    -2.99832
H     -1.77104     2.82025    -2.94856
H     -1.62182     1.23615    -2.59595
N      0.30005     1.55204     0.66511
H      0.90263     2.29708     0.33939
H     -0.58340     1.97004     0.94488
H      0.09961     0.98754    -0.15276
N      2.94730     0.05490     0.48828
H      2.04252     0.51338     0.60551
H      3.28844    -0.11707     1.42503
H      3.58272     0.71705     0.06266
N      0.78722    -2.57011     0.93291
H      1.45511    -1.99781     1.43199
H      1.17755    -2.70281     0.00447
H      0.78000    -3.47546     1.38111
N      1.40403    -0.18218     3.35369
H      1.30073     0.17310     4.29229
H      0.97087     0.48659     2.72561
H      0.84142    -1.01992     3.28305
N     -2.08170    -0.84207     0.40906
H     -1.24512    -1.42007     0.44531
H     -1.91830    -0.10137     1.07920
H     -2.83901    -1.41074     0.76186
N     -0.74966    -0.67314    -2.32947
H     -1.19161    -1.21042    -3.06628
H      0.00959    -1.24832    -1.98638
H     -1.42080    -0.61641    -1.56358
N     -2.54785     2.45941     0.87602
H     -2.99143     3.32412     1.15318
H     -2.40410     2.48601    -0.13165
H     -3.21129     1.71109     1.03027
N      2.40783    -1.81897    -1.79115
H      2.05498    -1.14792    -2.46177
H      2.64955    -1.28758    -0.94930
H      3.25955    -2.20174    -2.18124
