 28
-396.2149071941326
N      2.23468    -2.20084     1.36738
H      3.11776    -2.25271     0.87113
H      2.42222    -2.44461     2.33285
H      1.63132    -2.91968     0.97635
N      0.34614     1.86423    -2.43982
H      0.03093     1.93747    -3.40199
H     -0.46242     2.07552    -1.83854
H      1.00714     2.62411    -2.30923
N      0.03537    -3.77938    -0.18158
H     -0.80283    -4.16141     0.23848
H     -0.10563    -2.77405    -0.28593
H      0.11889    -4.17255    -1.11095
N     -1.19781     1.49833     1.92107
H     -1.62081     0.70535     2.39277
H     -0.26303     1.20439     1.58275
H     -1.04707     2.20504     2.63388
N     -0.81948    -0.89838    -0.79807
H     -1.60050    -1.30043    -1.30172
H     -1.20010    -0.24994    -0.12160
H     -0.29342    -0.33883    -1.46111
N     -1.94344     2.66049    -0.73272
H     -1.99210     3.67272    -0.68898
H     -2.85795     2.34499    -1.03626
H     -1.79185     2.31494     0.21974
N      1.42845     0.78488     0.88390
H      2.24805     1.15971     1.34681
H      1.49857    -0.23359     0.92821
H      1.49184     1.04343    -0.09545
