 24
-339.6115531555439
N      1.19258    -3.10300     1.22909
H      1.96135    -3.72804     1.43707
H      1.56634    -2.15671     1.22774
H      0.53862    -3.15976     1.99944
N      0.52442     2.83019     0.90518
H      0.97940     3.62209     0.46982
H     -0.23583     2.56164     0.28911
H      0.09480     3.17027     1.75569
N      0.50229    -1.49326    -1.60950
H      1.13884    -1.60955    -2.38569
H      0.78063    -0.64830    -1.12397
H      0.66383    -2.25742    -0.95936
N     -2.21455     2.54456    -1.23047
H     -2.35355     1.53908    -1.17340
H     -3.09684     2.97983    -0.99328
H     -2.02916     2.75701    -2.20255
N     -2.60704    -0.80716    -0.97339
H     -1.70777    -1.10684    -1.34426
H     -2.60163    -1.08779     0.00119
H     -3.32240    -1.35872    -1.43234
N      2.52876     0.04761     1.40237
H      3.39618     0.24366     0.92130
H      1.91595     0.84080     1.24545
H      2.73790     0.03285     2.39271
