 24
-339.6083563706862
N      0.16695    -1.40244    -0.89566
H     -0.64552    -1.84504    -1.30848
H      0.97540    -1.69907    -1.42833
H      0.26783    -1.76135     0.05107
N     -0.38465     2.67330     3.54534
H     -0.50437     1.91827     2.87866
H     -1.11789     3.35011     3.37747
H      0.49984     3.12366     3.34704
N      0.40609    -2.02574     2.26548
H     -0.17860    -2.68974     2.75767
H      1.31888    -2.04635     2.70289
H      0.02191    -1.10332     2.44258
N     -0.81398     0.81298     1.03477
H     -1.81514     0.70872     0.90581
H     -0.58609     1.74773     0.71463
H     -0.37457     0.15949     0.38684
N     -2.19011    -0.81355    -3.31564
H     -2.79369    -0.00861    -3.41897
H     -1.31488    -0.48396    -2.92906
H     -1.98889    -1.16782    -4.24186
N      2.57379     0.14144    -2.48445
H      1.75027     0.20764    -1.89804
H      3.37482     0.32724    -1.89477
H      2.52214     0.88237    -3.17107
