 36
-509.42709054951695
N     -0.97683     3.50722    -1.13487
H     -1.02197     4.06416    -0.28703
H     -0.27107     2.78303    -0.95737
H     -0.60775     4.12248    -1.85158
N      0.05624    -1.15472     3.99707
H      0.54480    -1.96543     3.63119
H      0.76150    -0.52340     4.35090
H     -0.49211    -1.46922     4.78540
N     -0.95596     0.44095    -2.67159
H     -1.52079    -0.13812    -3.27905
H     -1.02833     0.04126    -1.74187
H     -1.41150     1.34348    -2.61547
N      2.20540    -1.77904    -0.15035
H      2.71036    -1.02145     0.28674
H      2.30605    -1.63872    -1.14651
H      1.23262    -1.59165     0.05155
N     -3.64466     1.78928    -0.06968
H     -2.91167     2.32666    -0.52442
H     -4.45128     1.79597    -0.68035
H     -3.90079     2.29571     0.76802
N     -1.36125    -0.70912     0.86157
H     -1.77486    -1.62011     0.71720
H     -1.07743    -0.68856     1.83701
H     -2.10511    -0.02823     0.74058
N      1.92909     0.20006    -3.25580
H      0.94034     0.38347    -3.06367
H      2.33142     1.05908    -3.61454
H      1.95629    -0.46449    -4.02027
N      1.06380     1.54243    -0.25593
H      1.68784     2.03332     0.37110
H      0.54177     0.87908     0.30607
H      1.62214     1.01233    -0.91374
N      1.70033    -3.89204     2.55854
H      1.98476    -3.43723     1.69877
H      2.52930    -4.30970     2.96036
H      1.08159    -4.64720     2.29507
