 24
-339.6118563740182
N     -0.55389    -2.49742     1.71775
H     -0.81825    -3.43051     1.43241
H     -0.78737    -2.39981     2.69685
H     -1.13910    -1.84440     1.20903
N      0.40718     1.42211     1.22781
H      1.10706     0.76779     1.56782
H      0.79725     1.85647     0.39764
H      0.30506     2.15044     1.92305
N      1.61198     1.68687    -2.01448
H      2.30088     1.23207    -2.60050
H      0.72881     1.20352    -2.15509
H      1.49817     2.62719    -2.37038
N     -1.38110     0.16397    -2.34227
H     -2.18399     0.61745    -2.75908
H     -1.27349    -0.72518    -2.81539
H     -1.61385    -0.04335    -1.37485
N     -2.22048     0.23070     0.71713
H     -2.67141     0.10367     1.61707
H     -1.28025     0.60848     0.88806
H     -2.74369     0.95571     0.23863
N      2.38743    -1.06532     0.70613
H      1.59381    -1.64166     0.97366
H      2.05283    -0.46040    -0.03408
H      3.08273    -1.67683     0.29982
