 20
-283.004819136837
N     -0.71839     2.70943    -0.19001
H     -0.71905     3.32623    -0.99080
H      0.22636     2.67706     0.16403
H     -0.91361     1.77950    -0.53643
N      1.56051     0.10998     0.00557
H      0.71696    -0.19771    -0.47111
H      1.93125     0.89703    -0.51288
H      1.26650     0.45848     0.91136
N      3.51324    -2.51942     0.62177
H      3.14887    -3.36585     0.20163
H      2.88039    -1.76299     0.37382
H      4.39808    -2.32252     0.17003
N     -3.09128     0.77915     0.93881
H     -2.53616     1.62332     0.84115
H     -4.06247     1.03659     0.82192
H     -2.98227     0.46022     1.89309
N     -1.19579    -0.96947    -1.28386
H     -1.93790    -0.63467    -0.67387
H     -1.54409    -0.93011    -2.23319
H     -1.06186    -1.94909    -1.05994
