 20
-283.00660868074976
N     -1.22042     1.58944    -0.56067
H     -1.59729     0.77756    -1.02944
H     -0.85350     1.26514     0.32243
H     -0.42402     1.88640    -1.10681
N     -0.33625    -1.42436    -2.14393
H      0.29298    -0.69063    -1.83285
H      0.20472    -2.27895    -2.15910
H     -0.57741    -1.21458    -3.10448
N      0.95638     0.45527     2.39668
H      0.60375     1.22583     2.94932
H      0.17815    -0.17471     2.22782
H      1.61806    -0.04425     2.97571
N     -1.70912    -1.22679     1.20446
H     -2.29373    -0.41748     1.04130
H     -1.35133    -1.49491     0.29570
H     -2.30694    -1.96974     1.53506
N      2.16071     0.63596    -0.90692
H      1.78133     0.73198     0.02992
H      2.69785     1.46941    -1.09860
H      2.81351    -0.13612    -0.86922
