 24
-339.61206139836287
N     -0.33230    -2.54262     0.62848
H     -0.51386    -3.17510    -0.14444
H      0.66516    -2.30926     0.59721
H     -0.50826    -3.06779     1.47867
N      0.10039     1.11910     0.99135
H      0.12418     1.54819     1.90823
H     -0.87287     0.88902     0.79258
H      0.58056     0.23207     1.08396
N      2.52779    -1.78151     0.47761
H      3.01015    -2.53927     0.00457
H      2.58219    -0.96055    -0.12872
H      3.06779    -1.57826     1.31226
N     -2.25748     2.70511    -1.01962
H     -2.64947     3.63104    -0.91593
H     -2.70321     2.11006    -0.33278
H     -1.28375     2.75636    -0.75184
N     -2.46498    -0.38584     0.03763
H     -1.66829    -1.00117     0.20211
H     -3.30011    -0.93671     0.18810
H     -2.45303    -0.12166    -0.94164
N      2.30583     0.85423    -1.07477
H      2.96149     1.62614    -1.03585
H      1.98643     0.78650    -2.03541
H      1.49753     1.10140    -0.50421
