 24
-339.61319974467966
N      1.15406    -0.35357     1.50780
H      0.25275    -0.16982     1.93792
H      1.02176    -1.15021     0.89337
H      1.76577    -0.65584     2.25405
N     -2.03466     0.23902     2.88416
H     -2.49545    -0.45386     3.45862
H     -2.25537     1.14677     3.27049
H     -2.47039     0.19631     1.96802
N      0.95748    -1.98281    -1.63084
H      0.80416    -2.64740    -2.37662
H      0.18963    -1.32467    -1.65577
H      1.78589    -1.44702    -1.85804
N     -0.11722     1.31521    -1.35669
H     -0.28393     2.30686    -1.46042
H      0.15044     1.16251    -0.39119
H      0.70815     1.09865    -1.90152
N     -3.21607    -0.08336    -0.37553
H     -4.01172     0.33427    -0.83763
H     -2.37923     0.30165    -0.79722
H     -3.21472    -1.06896    -0.60101
N      3.34126     0.56372    -1.13412
H      2.78073     0.51753    -0.28974
H      4.14226    -0.03474    -0.97496
H      3.69478     1.50983    -1.19429
