 28
-396.2162981183883
N      2.87599    -1.32864    -0.04321
H      3.34360    -1.72178     0.76570
H      3.60539    -1.07205    -0.69973
H      2.41299    -0.45545     0.23627
N     -0.69270     0.66573    -2.43012
H      0.02509     1.34091    -2.66805
H     -0.22683    -0.24319    -2.34255
H     -1.30401     0.61369    -3.23840
N      0.58808    -1.97247    -2.04974
H      0.97712    -2.38539    -2.88881
H      1.34846    -1.87296    -1.37344
H     -0.05411    -2.65475    -1.65973
N     -2.77564     0.87362     0.34955
H     -2.72522    -0.09418     0.64531
H     -3.73117     1.05690     0.08018
H     -2.21467     0.93008    -0.49480
N     -0.66810    -1.40054     0.78935
H     -0.84256    -1.05639    -0.14192
H     -0.74013    -0.59941     1.39904
H      0.29588    -1.69528     0.81221
N      1.49445     1.23045     0.48779
H      1.99687     2.08766     0.30178
H      0.73527     1.17132    -0.18291
H      1.05872     1.33489     1.39948
N     -0.88945     1.87033     2.93254
H     -0.94006     2.83238     3.24018
H     -1.60248     1.75040     2.21795
H     -1.15859     1.29303     3.71855
