 24
-339.61416628801896
N     -2.22385    -1.56395    -0.92096
H     -1.95329    -0.62969    -1.20059
H     -3.21218    -1.66280    -1.10660
H     -2.08972    -1.61620     0.08363
N      1.02990     1.57800    -2.61358
H      0.33160     1.68326    -1.88496
H      1.60765     2.40729    -2.59085
H      0.53796     1.57169    -3.49678
N      1.38456    -1.35717    -0.68748
H      0.50621    -1.78453    -0.95591
H      1.51877    -0.59425    -1.34289
H      2.10806    -2.03365    -0.88316
N     -1.09344     1.72229     0.14894
H     -1.77841     2.45177     0.28304
H     -1.50709     0.86974     0.50093
H     -0.31986     1.92032     0.77083
N     -0.84938    -1.19599     2.12865
H     -0.05006    -1.54903     1.61588
H     -0.57120    -0.28054     2.45409
H     -0.97623    -1.78297     2.94101
N      1.82007     0.89181     2.00305
H      2.59029     1.53065     1.86080
H      2.06944     0.28766     2.77609
H      1.78400     0.29269     1.18314
