 24
-339.6092404485963
N     -1.87162    -1.55573    -0.94553
H     -1.94863    -0.64572    -1.37704
H     -0.89391    -1.67725    -0.71520
H     -2.10782    -2.24247    -1.64696
N     -0.01550     1.53803     1.52678
H      0.27397     0.63765     1.16604
H      0.27208     1.55286     2.49564
H     -1.02647     1.50030     1.54735
N      1.71917    -1.41109    -0.22151
H      1.87184    -1.92108     0.63905
H      2.18122    -1.94007    -0.95089
H      2.24326    -0.54249    -0.13598
N      0.38045     1.35918    -2.04455
H     -0.02378     1.84393    -1.25473
H     -0.23106     1.49399    -2.83629
H      0.38148     0.37713    -1.81054
N     -3.45872    -1.24378     2.13284
H     -4.44515    -1.43567     2.01358
H     -3.01499    -1.40530     1.23409
H     -3.09863    -1.94393     2.76881
N      3.11161     1.68145    -0.13588
H      4.01057     2.14176    -0.14547
H      2.68659     1.81287    -1.04648
H      2.51869     2.18030     0.51427
