 28
-396.217780548401
N      2.23138     2.07183    -1.13504
H      2.79803     1.98052    -1.97051
H      2.07337     3.06212    -0.99214
H      2.78239     1.72999    -0.35116
N      0.29102    -2.48269    -0.74372
H      0.75166    -1.61385    -0.50423
H     -0.50503    -2.55136    -0.11949
H      0.93389    -3.22702    -0.50980
N     -2.52791    -2.08687     1.18368
H     -3.03343    -2.66224     0.51988
H     -3.00344    -2.17460     2.07201
H     -2.64674    -1.12774     0.86624
N     -3.07006     0.76421    -0.50528
H     -2.13805     0.80510    -0.92364
H     -3.68665     0.40011    -1.22308
H     -3.36960     1.71507    -0.32505
N     -0.34373     0.65676    -1.80328
H     -0.21457    -0.34386    -1.92930
H     -0.49492     1.04522    -2.72772
H      0.53258     1.05748    -1.45613
N      0.19836     0.19470     1.55741
H     -0.00298     0.72241     2.39773
H     -0.31052     0.64135     0.80295
H     -0.21884    -0.71841     1.68980
N      3.26653     0.70352     1.44932
H      3.43482     1.09573     2.36743
H      2.27042     0.49480     1.38060
H      3.76311    -0.17858     1.40169
