 24
-339.6144668605437
N     -0.11827    -2.14271     1.61531
H     -0.11806    -2.96448     2.20246
H      0.40493    -2.36062     0.77295
H      0.42399    -1.43255     2.08894
N      0.04492     1.28881     1.68656
H     -0.18501     1.70776     2.57595
H     -0.31699     1.90602     0.96700
H     -0.49075     0.43314     1.60940
N      1.23213    -1.66428    -1.45749
H      0.37971    -1.16116    -1.66691
H      1.88288    -0.96997    -1.10410
H      1.60418    -2.00719    -2.33236
N     -1.59178     2.34629    -1.18326
H     -1.08580     2.51087    -2.04331
H     -1.79568     1.35232    -1.14220
H     -2.47678     2.83117    -1.25113
N     -2.48124    -0.94458    -0.62101
H     -1.84709    -1.34614     0.06287
H     -3.33817    -0.73719    -0.12292
H     -2.69985    -1.67876    -1.28083
N      3.02901     0.94396    -0.00975
H      3.77539     0.79487     0.65580
H      3.22903     1.80253    -0.50562
H      2.18298     1.10669     0.52690
