 36
-509.4317006022047
N     -1.47993     3.09576     0.49154
H     -0.90088     2.54621     1.12526
H     -1.05936     3.00518    -0.42509
H     -1.40500     4.06901     0.75892
N      2.00315    -2.30534     1.70906
H      2.39091    -2.71275     2.54670
H      1.02717    -2.09618     1.88885
H      1.99692    -3.02152     0.99589
N      0.92073     1.43790    -2.18405
H     -0.00746     1.03666    -2.26429
H      1.03829     1.73526    -1.22425
H      0.96345     2.25906    -2.76896
N      2.92672     0.80319     0.43756
H      2.66930    -0.05589     0.91184
H      2.73063     0.67836    -0.54715
H      3.92413     0.92032     0.53933
N     -1.68992    -0.56389    -2.52189
H     -1.26147    -1.43005    -2.22602
H     -2.30204    -0.27593    -1.76823
H     -2.27097    -0.77136    -3.31953
N     -1.11165    -1.93214     0.84659
H     -0.37810    -2.11293     0.16884
H     -1.72333    -2.73745     0.83865
H     -1.64326    -1.15330     0.47461
N      1.32657    -2.04805    -1.55042
H      2.05677    -1.85116    -0.87874
H      1.09092    -1.15570    -1.96923
H      1.73994    -2.61002    -2.27978
N      0.20454     1.23436     2.28611
H      1.11284     1.36921     1.84899
H      0.35436     1.25885     3.28544
H     -0.07515     0.28980     2.04881
N     -3.32241     0.48613     0.45757
H     -2.87250     1.39902     0.45418
H     -4.32280     0.63912     0.44601
H     -3.10506     0.06505     1.35346
