 32
-452.825318899037
N     -0.84203    -0.96634    -2.58399
H     -0.78178    -0.33251    -3.37486
H      0.06294    -0.92734    -2.09344
H     -0.92956    -1.89519    -2.98499
N      1.42523    -2.74396     1.35681
H      0.77906    -2.58752     0.59473
H      1.05740    -3.49667     1.92332
H      1.40358    -1.89096     1.90721
N     -2.01059     0.64699     2.06029
H     -2.83939     0.72986     2.63526
H     -2.26433     0.13839     1.20442
H     -1.35418     0.07178     2.57142
N      2.00754     2.25658    -0.46144
H      2.26163     2.96998    -1.13401
H      0.98883     2.12027    -0.51173
H      2.19947     2.64178     0.45593
N      1.83938    -0.83200    -1.41081
H      2.46218    -1.10381    -2.16272
H      2.09746    -1.38737    -0.60044
H      2.03950     0.14509    -1.19743
N     -0.91484     2.01870    -0.65646
H     -1.22818     1.34189    -1.33878
H     -1.39436     1.80722     0.21536
H     -1.23501     2.92593    -0.96708
N     -2.79918    -0.87892    -0.32926
H     -2.14694    -0.86282    -1.12123
H     -2.77543    -1.81875     0.05321
H     -3.73907    -0.74026    -0.68223
N      1.32903     0.45783     2.21097
H      1.66740     0.97550     3.01038
H      0.45271     0.87546     1.91998
H      1.97511     0.62112     1.44806
