 36
-509.42821177065997
N     -0.64531     1.57711    -1.13310
H     -1.09359     1.28708    -0.27351
H     -1.39375     1.85432    -1.74946
H     -0.23005     0.74024    -1.52105
N     -0.05178     2.45702     1.83048
H      0.36797     3.23789     2.31889
H      0.06864     2.62946     0.83760
H     -1.05069     2.49767     2.01948
N      3.45156    -0.90442    -2.25140
H      2.79073    -0.80340    -1.47712
H      4.16310    -0.19457    -2.12713
H      3.90151    -1.80455    -2.13617
N      1.54250    -0.75295     0.04347
H      1.98634    -1.06339     0.89832
H      1.15779     0.16092     0.24677
H      0.76878    -1.37954    -0.14333
N      1.02595     0.07525     3.22979
H      1.85958     0.38125     3.71958
H      0.69082     0.86385     2.66914
H      0.32162    -0.07307     3.94389
N     -0.94286    -2.30586    -1.83112
H     -0.36898    -1.65677    -2.37893
H     -0.49249    -3.21202    -1.89475
H     -1.83156    -2.39591    -2.30926
N      0.68234    -0.51445    -3.56758
H      0.53812    -0.88967    -4.49880
H      1.65456    -0.68343    -3.31586
H      0.56823     0.49041    -3.64134
N     -3.29241     1.43534     2.08519
H     -2.75578     0.59644     1.85614
H     -4.09554     1.45120     1.46644
H     -3.65537     1.30926     3.02269
N     -1.70814    -1.00159     1.36511
H     -0.79762    -0.95066     1.80773
H     -2.20115    -1.77533     1.79253
H     -1.55094    -1.25948     0.39436
