 36
-509.4276828747344
N     -0.03290     0.80882    -0.75396
H      0.69487     1.28269    -1.27672
H     -0.68350     1.51822    -0.44141
H      0.40152     0.44037     0.08501
N      3.44698     2.22560     1.56172
H      4.32919     2.32228     2.04744
H      2.80143     2.88388     1.97928
H      3.09026     1.29730     1.77161
N      2.89724     2.18923    -1.85334
H      3.07820     2.13535    -0.85454
H      3.10208     3.13824    -2.13808
H      3.57156     1.58305    -2.30215
N      2.38286    -0.93120     2.07507
H      1.36461    -0.87022     2.12019
H      2.59971    -1.51046     1.27158
H      2.68668    -1.44928     2.89181
N     -0.67128    -0.60818     2.15743
H     -1.06243     0.29491     1.91096
H     -1.08382    -1.28676     1.50695
H     -0.98007    -0.82044     3.09976
N      0.15879    -1.79472    -2.28261
H      0.04819    -0.89402    -1.80773
H      1.01887    -2.19762    -1.92446
H      0.34796    -1.58757    -3.25786
N     -1.95490    -2.49845     0.27338
H     -2.14505    -3.43041     0.61590
H     -1.32098    -2.57856    -0.51743
H     -2.81892    -2.11494    -0.09199
N     -3.21463     1.12775     0.68585
H     -3.89680     1.84195     0.90241
H     -3.23731     0.45229     1.43870
H     -3.51901     0.63990    -0.15061
N     -3.03034    -0.42466    -2.13837
H     -2.28488     0.14550    -1.75873
H     -2.57060    -1.26360    -2.46537
H     -3.38752     0.05573    -2.95230
