 24
-339.60984354135854
N     -0.92236    -2.16422     0.85076
H     -0.94515    -1.33246     1.43151
H     -1.88224    -2.41855     0.65384
H     -0.51914    -2.90928     1.40121
N     -1.12603     1.00325     2.34999
H     -2.04321     1.41666     2.25789
H     -0.77835     1.23980     3.26824
H     -0.52722     1.45819     1.67501
N      0.82963    -0.59008    -1.62537
H      0.34467     0.28960    -1.50187
H      0.65457    -0.90593    -2.56804
H      0.39236    -1.24924    -0.98899
N     -3.22677    -1.59428    -1.42876
H     -3.16338    -2.03800    -2.33563
H     -3.69908    -0.70774    -1.55523
H     -2.27938    -1.38392    -1.13510
N      1.07898     2.74540    -0.27329
H      1.22017     3.59157     0.26681
H      1.82500     2.09981    -0.01823
H      1.24627     3.00358    -1.24033
N      3.19733     0.44617     0.22915
H      2.59576     0.03715    -0.48451
H      4.15633     0.21407     0.00062
H      2.96624    -0.04110     1.08925
