 36
-509.42735106530466
N      1.17866     1.98400     2.25480
H      1.45387     1.55323     3.13058
H      1.30585     2.98261     2.37298
H      0.17452     1.81912     2.13843
N      0.78958     2.12513    -2.49378
H      1.17732     2.86982    -3.05960
H      0.07861     2.54500    -1.90475
H      1.52664     1.79045    -1.86462
N      2.78950     1.00462    -0.56521
H      2.32605     1.27442     0.30002
H      3.75678     1.28885    -0.48965
H      2.77196    -0.00816    -0.59433
N     -2.73764    -2.00614     0.55972
H     -1.85198    -1.65177     0.19704
H     -2.65490    -3.01511     0.60463
H     -3.45815    -1.80258    -0.12267
N     -2.95154    -0.68030     3.65162
H     -2.88288    -1.08980     2.72160
H     -3.86847    -0.90831     4.01440
H     -2.26501    -1.14898     4.23001
N     -0.01840    -0.84980    -0.07675
H      0.32277    -0.30254    -0.85459
H      0.09935    -0.28650     0.75683
H      0.61200    -1.63793     0.00685
N      0.30375    -0.75682    -3.24848
H      0.40644     0.25878    -3.19859
H      0.25371    -1.01982    -4.22602
H     -0.59952    -0.97898    -2.84104
N     -1.69065     1.47645     1.74914
H     -2.27288     2.28562     1.56499
H     -2.10290     0.98769     2.54175
H     -1.79259     0.85962     0.95019
N      2.38433    -2.26780    -1.83946
H      3.26874    -1.98339    -2.24885
H      2.27285    -3.24815    -2.07505
H      1.65138    -1.74863    -2.34171
