 20
-283.006432063614
N      1.25898     1.24008    -1.12038
H      2.20303     1.53228    -0.88829
H      1.25931     0.22200    -1.11246
H      1.09191     1.53672    -2.07577
N      1.47395    -1.83974    -1.16996
H      0.81216    -2.36786    -0.60521
H      1.43413    -2.21797    -2.11064
H      2.39833    -2.05351    -0.81056
N     -1.58728     0.18539     0.72171
H     -1.43131     0.73903     1.55286
H     -0.94231     0.54429     0.02611
H     -2.52311     0.38668     0.39436
N     -0.71266    -3.06383     0.70959
H     -1.54453    -3.53725     0.37724
H     -0.56861    -3.33790     1.67409
H     -0.91270    -2.06591     0.70691
N     -0.46958     3.55391     0.86498
H     -1.40156     3.17084     0.93969
H      0.09048     2.85216     0.39337
H     -0.10677     3.65196     1.80361
