 36
-509.428282329316
N      0.66299    -0.76151     0.53719
H      0.95462    -1.71549     0.72041
H      0.03930    -0.78865    -0.25945
H      1.48264    -0.24994     0.23297
N      3.24873     1.71535    -0.95889
H      2.92767     2.43313    -0.31483
H      3.97123     1.19789    -0.47586
H      3.69907     2.18816    -1.73111
N      2.01143     3.84855     1.40857
H      1.56985     4.74161     1.22679
H      1.27534     3.19124     1.65931
H      2.59119     3.96971     2.23000
N      0.53310    -4.14568     0.33891
H     -0.04660    -3.78723    -0.41496
H     -0.07110    -4.70449     0.92688
H      1.20628    -4.77226    -0.08155
N     -1.29506    -3.03784    -2.38232
H     -1.62174    -2.14081    -2.02873
H     -0.66820    -2.82868    -3.14989
H     -2.09787    -3.51008    -2.77915
N     -2.51201    -0.85091     1.85737
H     -2.54790    -1.26418     0.93396
H     -3.03199    -1.45971     2.47462
H     -1.53840    -0.93365     2.11913
N     -2.31529    -0.19380    -1.47250
H     -2.89177    -0.01433    -2.28964
H     -2.87847     0.07942    -0.67684
H     -1.52957     0.46999    -1.49661
N     -0.08100     1.56587     2.20978
H      0.34883     1.45601     3.12139
H     -1.07984     1.54289     2.36559
H      0.14992     0.73052     1.66117
N     -0.19732     1.77586    -1.31578
H      0.76940     1.55160    -1.52268
H     -0.21965     2.08990    -0.35200
H     -0.45053     2.56648    -1.89352
