 24
-339.6123099706281
N     -0.08107    -1.97982     2.12011
H     -0.20430    -1.48805     2.99575
H      0.43325    -2.82726     2.31785
H      0.52308    -1.39348     1.55508
N      0.32113     2.77176     1.68183
H     -0.05533     2.35864     0.83278
H     -0.44811     2.83553     2.33607
H      0.59713     3.71651     1.44623
N      0.86665    -1.32824    -2.40662
H      1.70372    -1.03306    -2.88993
H      1.09451    -1.34360    -1.41766
H      0.69384    -2.28365    -2.68533
N     -0.91912     1.54710    -1.29907
H     -0.50279     0.94989    -2.00161
H     -1.59249     0.96716    -0.80572
H     -1.44105     2.25829    -1.79315
N     -2.36246    -1.17435    -0.29519
H     -1.69644    -1.24794    -1.05382
H     -1.89208    -1.52476     0.53208
H     -3.12379    -1.80560    -0.50200
N      2.01516     0.16616     0.35802
H      1.56633     0.54471    -0.46642
H      1.76748     0.80474     1.10826
H      3.01368     0.25179     0.22706
