 36
-509.4333449863826
N      2.17981    -0.46523    -2.92920
H      2.98673    -0.23025    -3.49377
H      1.37441    -0.41679    -3.54120
H      2.04075     0.27799    -2.23489
N     -0.94446     2.42151     1.46937
H     -1.17540     3.40624     1.47408
H      0.01721     2.34657     1.77955
H     -0.96470     2.11971     0.49832
N      1.61387     1.74327    -1.08574
H      1.71499     1.60817    -0.08550
H      2.21347     2.51487    -1.34487
H      0.65876     2.04224    -1.25975
N      2.12293    -2.19246    -0.19786
H      2.35720    -1.76679    -1.09046
H      2.81205    -2.90907    -0.01628
H      1.23301    -2.65901    -0.32028
N     -1.74746     1.64121    -1.51070
H     -1.44858     0.66704    -1.63324
H     -2.49750     1.63922    -0.82945
H     -2.15260     1.95454    -2.38366
N      1.60068     0.35707     1.96606
H      1.86054    -0.26949     1.20950
H      1.95016    -0.04401     2.82460
H      0.58974     0.33312     2.01079
N     -2.73511    -0.02750     2.99543
H     -2.52367     0.01917     3.98397
H     -2.25569     0.75182     2.55698
H     -3.72821     0.13774     2.89785
N     -1.03275    -2.44418     1.19976
H     -1.13204    -3.34615     1.64408
H     -0.08705    -2.12355     1.37016
H     -1.64656    -1.79993     1.68789
N     -0.93670    -1.15765    -1.91792
H     -1.43659    -1.69843    -2.61025
H      0.05764    -1.27479    -2.07459
H     -1.14929    -1.56500    -1.01108
