 24
-339.6122169948991
N      0.97811     1.08078     1.70930
H      0.07229     0.62811     1.65444
H      1.52258     0.56100     2.38660
H      0.81553     1.99289     2.11635
N     -2.37692    -0.04262     0.77961
H     -2.13233     0.76842     0.22180
H     -2.90883    -0.63935     0.15584
H     -3.00933     0.26858     1.50355
N     -2.65299    -0.93030    -2.45276
H     -1.74223    -1.36294    -2.36809
H     -3.01009    -1.15330    -3.37128
H     -2.49260     0.06857    -2.42737
N     -0.52002     1.70492    -1.58154
H     -0.23882     2.27258    -2.36893
H      0.04923     1.99077    -0.79456
H     -0.22913     0.75514    -1.78152
N      0.40818    -1.48270    -0.67725
H      1.09606    -0.89280    -0.22596
H     -0.41684    -1.41636    -0.08989
H      0.74707    -2.43209    -0.60690
N      3.95771    -0.03016     2.32272
H      4.71582     0.59482     2.56483
H      4.36561    -0.89337     1.98711
H      3.45956     0.38839     1.54858
