 24
-339.613932562471
N      0.53196    -2.17908     1.57801
H      0.86754    -3.10350     1.33685
H      1.31391    -1.53785     1.46591
H      0.32412    -2.20613     2.56995
N     -0.07710     1.89245     1.42599
H     -0.80213     1.18855     1.48991
H     -0.27558     2.59230     2.12562
H     -0.19605     2.32839     0.51901
N      0.41745    -0.94496    -2.05520
H      0.49594    -1.46118    -1.18875
H      1.20955    -1.19657    -2.62753
H      0.50926     0.03169    -1.80831
N     -1.29966     1.90963    -1.77035
H     -1.16284     1.25873    -2.53351
H     -1.75150     1.37946    -1.02904
H     -1.96143     2.60609    -2.08825
N     -2.21634    -0.66751     0.08523
H     -1.99960    -0.87244    -0.88252
H     -1.50793    -1.15205     0.62804
H     -3.10601    -1.09852     0.29139
N      2.58761     0.13164     0.91421
H      3.44795     0.58935     1.18932
H      2.55982     0.12349    -0.09883
H      1.81162     0.72425     1.20066
