 24
-339.60841351584764
N     -3.18720    -2.58878     1.90832
H     -2.35711    -2.37317     1.37199
H     -3.03370    -2.24446     2.84636
H     -3.25866    -3.59639     1.95008
N      1.91838     1.25362     1.89225
H      1.48264     1.98529     1.34189
H      1.22289     0.92872     2.54973
H      2.65482     1.68659     2.43228
N      0.48403     2.66081    -0.94402
H     -0.13518     1.87412    -0.80616
H      0.07538     3.23445    -1.66946
H      1.34168     2.26632    -1.31943
N      0.50698    -1.00209    -0.93588
H      0.85902    -0.62747    -0.06547
H      0.73845    -0.32458    -1.64673
H     -0.49993    -1.06750    -0.87565
N     -2.98422    -0.89706    -0.92694
H     -3.28737     0.06689    -0.98426
H     -3.47634    -1.30963    -0.14332
H     -3.31786    -1.35915    -1.76340
N      3.16846     0.59832    -1.34824
H      2.89254    -0.35357    -1.54775
H      4.12106     0.71443    -1.66453
H      3.17484     0.67425    -0.33775
