 20
-283.0056050941161
N      2.73196     2.97943    -1.41876
H      2.29013     3.15324    -2.31128
H      2.67607     3.83599    -0.88430
H      3.71056     2.79451    -1.59278
N      0.83017    -2.48630    -0.39869
H      1.31603    -2.42892    -1.28657
H      0.71153    -1.52878    -0.06473
H      1.45333    -2.94908     0.25318
N      0.86365     0.47176     0.60761
H     -0.03290     0.89377     0.83538
H      1.44284     0.55257     1.43394
H      1.29786     1.04276    -0.10720
N     -2.28523    -2.09964    -0.00657
H     -2.77222    -2.20545    -0.88857
H     -1.31747    -2.36434    -0.17175
H     -2.67458    -2.79114     0.62274
N     -2.27114     1.09250     1.25351
H     -2.91934     1.55132     0.62652
H     -2.12522     0.15541     0.88549
H     -2.73987     0.98615     2.14384
