 36
-509.4309537461809
N      0.57289     2.52633    -3.56329
H      0.35311     1.60152    -3.20327
H     -0.18082     2.77891    -4.18873
H      1.41020     2.43032    -4.12221
N     -1.02973     3.16572     2.52739
H     -0.90619     3.08773     1.51672
H     -2.01650     3.30437     2.70817
H     -0.55094     4.00525     2.83108
N     -0.15159    -0.67129    -2.57566
H      0.61316    -1.17913    -2.14725
H     -0.87702    -0.62694    -1.85703
H     -0.49720    -1.26734    -3.31857
N      2.04054    -0.27431     0.07853
H      1.54301     0.04871     0.91042
H      2.93496     0.20036     0.05849
H      1.51776     0.08042    -0.71327
N     -0.25023     2.54163    -0.26805
H      0.13033     3.15588    -0.97462
H      0.52545     2.16020     0.25552
H     -0.69159     1.77541    -0.75991
N     -1.53292    -3.69691     0.73635
H     -1.73368    -4.32234    -0.03379
H     -1.76771    -4.18387     1.59102
H     -0.52731    -3.55657     0.73880
N      0.28946     0.54798     2.51156
H     -0.39113    -0.20421     2.47171
H      0.85367     0.36958     3.33478
H     -0.20539     1.43464     2.63745
N      1.93716    -3.56636     0.75173
H      1.97731    -2.58654     0.48888
H      2.50183    -4.07847     0.08572
H      2.39174    -3.64302     1.65285
N     -1.93584    -0.52195    -0.20078
H     -1.41946     0.03624     0.46935
H     -2.89898    -0.22040    -0.15319
H     -1.90125    -1.48796     0.11140
