 36
-509.42993674605265
N      0.74228     0.62482    -1.03907
H      0.78310     0.02679    -0.22344
H     -0.10380     0.36438    -1.52873
H      1.52174     0.33438    -1.61355
N     -2.46744     0.40590     0.36566
H     -2.51150    -0.01901    -0.55425
H     -3.33852     0.90480     0.49529
H     -1.73509     1.10455     0.31987
N     -0.89388     1.91309     2.83025
H     -1.25203     2.24646     3.71260
H     -0.89292     2.69195     2.18383
H     -1.55425     1.24018     2.46542
N      3.04721    -1.68188    -0.41404
H      3.86207    -2.27387    -0.48445
H      3.23382    -1.00895     0.31741
H      2.29764    -2.25193    -0.04453
N     -0.40937     3.67996    -0.22985
H      0.10318     2.86685    -0.55607
H     -1.02364     3.96208    -0.98141
H      0.26369     4.41999    -0.09179
N      0.04749    -2.02291     1.43370
H     -0.79511    -1.48502     1.27136
H     -0.19126    -2.75082     2.08961
H      0.68592    -1.39709     1.91055
N      0.16796    -2.79070    -2.04475
H      0.39033    -3.75239    -2.25902
H     -0.09378    -2.75122    -1.06556
H      1.02659    -2.25979    -2.10603
N      2.17233     0.70218     2.07465
H      2.96042     1.05949     2.59485
H      1.33043     1.01647     2.54759
H      2.15750     1.18383     1.18340
N     -2.40992    -0.84906    -2.88635
H     -2.27227    -0.31515    -3.73398
H     -1.64148    -1.51018    -2.81946
H     -3.25499    -1.39154    -3.00872
