 36
-509.4278402719863
N     -2.30923    -0.50322     1.54904
H     -2.94678    -1.27938     1.41944
H     -2.81780     0.20206     2.07586
H     -2.14663    -0.10295     0.63126
N      0.19686     0.77335    -0.24432
H      0.54291    -0.12038    -0.56953
H      0.95833     1.42562    -0.40241
H      0.05782     0.69036     0.75565
N      2.72689     1.47140    -1.84938
H      3.72268     1.36937    -2.00928
H      2.26345     0.63322    -2.21995
H      2.43679     2.24617    -2.43874
N      2.65522    -1.37627     0.70603
H      2.81833    -0.48158     0.25804
H      1.90123    -1.22766     1.37634
H      3.48928    -1.59695     1.23631
N      0.20558    -1.13877     2.93122
H      0.08756    -2.06789     3.32120
H      0.29407    -0.51227     3.72493
H     -0.66969    -0.90494     2.45018
N     -2.24018     2.32897    -1.06099
H     -1.95270     3.25249    -1.36219
H     -1.38582     1.78882    -0.91763
H     -2.74579     1.91692    -1.83534
N      1.20195    -0.82778    -2.91393
H      1.32777    -0.92074    -3.91598
H      1.26178    -1.75990    -2.50210
H      0.24977    -0.50224    -2.77312
N     -3.68901     2.54845     2.05700
H     -3.16313     3.25546     2.55417
H     -3.27461     2.47534     1.13110
H     -4.63013     2.89857     1.93333
N      1.33748    -3.34238    -1.14475
H      0.43660    -3.50406    -0.70350
H      1.81572    -4.23536    -1.17281
H      1.85582    -2.72652    -0.51139
