 24
-339.6079276901017
N      0.41151    -2.32643     3.34602
H      0.04663    -1.65960     4.01236
H     -0.21210    -3.12221     3.34521
H      1.29765    -2.64895     3.71147
N     -2.92238     2.13394    -0.75520
H     -3.36254     1.84471    -1.62055
H     -2.45441     1.31446    -0.37171
H     -3.66236     2.38304    -0.10950
N      2.15408    -1.01247    -3.08159
H      1.49140    -0.58301    -2.44836
H      2.51548    -0.27446    -3.67284
H      1.62943    -1.64839    -3.66855
N      0.34780     2.37810     0.37175
H      0.53479     3.12384     1.02711
H     -0.20715     2.77590    -0.37412
H     -0.27341     1.73031     0.83997
N     -1.46037    -0.60270     0.38506
H     -1.95764    -1.27127    -0.19559
H     -0.48444    -0.60595     0.07190
H     -1.44792    -1.00265     1.31649
N      1.52623    -0.70653     0.08099
H      2.23638    -1.04039    -0.55890
H      1.71434     0.27270     0.27775
H      1.62012    -1.22551     0.94508
