 36
-509.4271756241465
N     -0.02702     2.63413    -1.06063
H     -0.35164     3.46008    -1.54156
H      0.97603     2.57696    -1.20808
H     -0.42975     1.83384    -1.53081
N     -0.39144     2.21399     1.86618
H     -0.22811     2.37475     0.86750
H     -0.03518     3.00714     2.38574
H      0.16782     1.41391     2.13652
N      2.93861     1.35351    -1.74982
H      2.21724     0.78749    -2.19665
H      3.67843     1.49593    -2.42463
H      3.32320     0.78970    -1.00198
N      1.55102    -2.35425     2.51204
H      1.27272    -1.61856     1.86314
H      2.19766    -1.94288     3.17398
H      2.06870    -3.03382     1.96794
N      0.76263    -0.50323    -3.20147
H      0.92889    -1.45828    -3.49915
H     -0.12728    -0.47329    -2.68153
H      0.62374     0.03191    -4.05167
N     -1.53596    -2.44300     2.63347
H     -1.93972    -3.34350     2.40594
H     -0.52721    -2.55725     2.69659
H     -1.87250    -2.19092     3.55547
N     -2.39471    -0.22754     0.83328
H     -2.03082    -0.99196     1.41351
H     -3.40799    -0.29207     0.86415
H     -2.15493     0.65255     1.28442
N      1.01707    -0.24184     0.31121
H      1.43378     0.67945     0.36580
H      0.01383    -0.10456     0.31758
H      1.27011    -0.62637    -0.59004
N     -1.90829    -0.28440    -1.96656
H     -2.36657    -1.10215    -2.36057
H     -2.02156    -0.32616    -0.93474
H     -2.46549     0.50295    -2.28892
