 24
-339.6122907874935
N      0.43829    -2.33701     0.10452
H     -0.26602    -1.84987    -0.44945
H      0.93099    -2.96686    -0.51881
H     -0.07630    -2.91628     0.75771
N     -1.42341     2.72333    -0.09783
H     -1.60919     3.63030    -0.50550
H     -1.37940     2.84487     0.90571
H     -0.49337     2.44570    -0.39958
N     -1.41071    -0.32550    -1.53813
H     -1.83127     0.50979    -1.14550
H     -0.41748    -0.13087    -1.57402
H     -1.73404    -0.40266    -2.49183
N      1.76033     1.90540    -1.19127
H      2.09146     1.64605    -2.11267
H      2.25418     2.75451    -0.94017
H      2.07219     1.18347    -0.54433
N     -2.22029    -1.70889     1.64149
H     -2.83647    -1.31267     2.33935
H     -1.30519    -1.30410     1.78779
H     -2.51899    -1.35210     0.74253
N      2.53676    -0.25839     0.94737
H      1.79521    -0.93045     0.74869
H      3.40139    -0.77697     1.04405
H      2.33688     0.16248     1.84855
