 40
-566.0319541023524
N     -4.58380    -1.17938    -1.90276
H     -4.94148    -0.99573    -2.83192
H     -5.36028    -1.45965    -1.31712
H     -4.22076    -0.29686    -1.53869
N     -0.19438    -1.64602     0.68660
H     -0.84395    -1.64257    -0.09682
H     -0.67359    -1.96528     1.51684
H      0.06810    -0.68366     0.86817
N      2.25959     1.12238    -0.61238
H      2.68718     1.56856    -1.41458
H      2.48356     1.68377     0.20614
H      2.72028     0.22917    -0.49803
N     -3.30345     1.44917    -0.78667
H     -3.33876     1.56743     0.21981
H     -2.31643     1.29658    -1.03703
H     -3.58896     2.33004    -1.19741
N      3.88187    -0.15214     2.13755
H      3.46035    -0.83194     1.49821
H      4.87904    -0.12638     1.95833
H      3.77064    -0.51583     3.07779
N      2.41083     2.40174     2.24250
H      2.98523     3.08085     2.72343
H      1.57517     2.27524     2.79911
H      2.91743     1.51093     2.22022
N      2.65649    -2.25696     0.33445
H      1.64773    -2.09167     0.42493
H      2.83377    -2.47277    -0.64100
H      2.86203    -3.10722     0.84841
N     -1.86066    -2.24765    -1.81228
H     -1.73303    -3.08695    -1.26064
H     -2.85452    -2.00014    -1.82167
H     -1.59022    -2.49117    -2.75843
N     -0.78826     1.86275     1.48339
H     -1.36473     2.63636     1.18112
H      0.15267     2.07130     1.16875
H     -1.09220     1.07244     0.92801
N     -0.48648     0.83124    -1.63491
H     -0.39380     1.28511    -2.53742
H     -0.63265    -0.15581    -1.82893
H      0.42001     0.92479    -1.15847
