 36
-509.42792924204156
N     -1.03031    -0.05139    -0.04616
H     -0.05042     0.13938    -0.21668
H     -1.55848     0.73087    -0.40965
H     -1.15470    -0.03846     0.95991
N      1.74626     0.07020     1.87468
H      1.04238     0.79164     1.97023
H      1.31409    -0.78198     2.21566
H      2.49624     0.30391     2.50878
N     -0.41627     1.76104    -2.50041
H     -0.32968     2.15300    -3.43237
H      0.49369     1.35703    -2.23393
H     -1.04287     0.96581    -2.58282
N     -1.69440    -2.75491    -1.08165
H     -1.78440    -2.77290    -2.09225
H     -2.61260    -2.96959    -0.71149
H     -1.48197    -1.78880    -0.81384
N     -1.28917     2.17601     2.57075
H     -1.32554     2.48187     1.60003
H     -2.24481     2.13074     2.90259
H     -0.83465     2.91712     3.08753
N      1.64014    -2.29794    -0.94657
H      2.31618    -3.01126    -1.18480
H      1.78547    -2.04469     0.02209
H      0.71169    -2.69552    -1.03044
N      2.11852     0.43948    -1.69236
H      1.91841    -0.56681    -1.64175
H      2.48601     0.68580    -0.77946
H      2.87336     0.58194    -2.35440
N     -1.28793     3.57941    -0.36419
H     -0.95176     2.93924    -1.09526
H     -2.07726     4.08561    -0.74865
H     -0.55284     4.26420    -0.22079
N      0.15368    -2.97305     2.22229
H     -0.56621    -2.93098     2.92931
H      0.62130    -3.86183     2.33297
H     -0.31962    -3.00064     1.32837
