 24
-339.6103735030139
N      2.23351    -1.46366     2.57744
H      1.23348    -1.28763     2.49134
H      2.41879    -2.35346     2.13151
H      2.43887    -1.56474     3.56340
N     -1.04761    -1.07588     2.44156
H     -1.56188    -1.94795     2.48424
H     -1.40479    -0.49546     3.19254
H     -1.30184    -0.61058     1.57314
N     -1.33261    -1.24894    -2.61254
H     -1.39142    -1.17046    -1.60521
H     -2.23781    -1.55373    -2.94361
H     -0.66801    -1.98411    -2.81372
N     -0.30850     1.88677    -3.44248
H     -0.01565     2.14556    -2.50928
H     -0.56847     0.90563    -3.40142
H      0.50046     1.96713    -4.04506
N     -1.45009     0.79383     0.05669
H     -1.98063     1.57410     0.42310
H     -0.48668     0.90561     0.36620
H     -1.47471     0.87583    -0.94955
N      1.82603     1.19150     0.89054
H      2.41728     1.25785     0.07058
H      2.03744     1.99588     1.46888
H      2.13022     0.36972     1.40517
