 28
-396.21677365433027
N      2.46081    -0.05475    -2.26263
H      2.64491    -0.96797    -2.66461
H      3.35484     0.42521    -2.23972
H      2.16728    -0.18666    -1.28864
N     -1.57779     0.07751     2.88380
H     -2.56279    -0.08508     3.06524
H     -1.22399     0.59283     3.68152
H     -1.52774     0.69549     2.07294
N      1.52856    -0.34771     0.53465
H      1.20295    -1.28634     0.73842
H      2.27758    -0.15214     1.18605
H      0.76725     0.28293     0.75799
N     -1.57603     1.65863     0.32636
H     -2.43607     2.19341     0.29412
H     -0.88653     2.16430    -0.22457
H     -1.75146     0.78586    -0.16808
N     -1.09840    -1.16194    -1.45876
H     -1.49748    -1.65854    -2.24115
H     -0.21695    -0.77473    -1.77109
H     -0.86932    -1.84419    -0.74828
N      0.78122     2.72928    -1.90538
H      0.44365     3.17992    -2.74709
H      1.55280     3.28915    -1.56557
H      1.17518     1.83327    -2.18348
N     -0.52060    -2.89490     1.82013
H     -0.10100    -3.43328     2.56805
H     -0.73506    -1.97273     2.19479
H     -1.41347    -3.32626     1.61306
