 36
-509.4295526056198
N     -1.69660     0.88368    -3.11559
H     -1.87845     0.90810    -2.10693
H     -1.79910     1.83243    -3.45979
H     -2.46488     0.35612    -3.51958
N      0.89400     0.80625     3.82691
H      1.55503     0.95246     4.57885
H      0.12547     0.26942     4.21027
H      1.34440     0.22077     3.12048
N      0.99474    -2.44690    -0.34651
H      0.15451    -2.09923     0.11071
H      0.85851    -2.33479    -1.34732
H      1.04522    -3.44105    -0.16463
N      0.33395    -1.77406    -3.66320
H     -0.32284    -2.40828    -4.09988
H     -0.17504    -0.91566    -3.46736
H      1.03801    -1.55230    -4.35442
N     -2.47521     0.88064    -0.24597
H     -2.50489    -0.07898     0.07866
H     -1.88585     1.40439     0.40833
H     -3.41995     1.23813    -0.17674
N     -0.98387    -1.29729     1.89811
H     -1.57782    -1.68725     2.61457
H     -0.02313    -1.49578     2.14405
H     -1.08267    -0.29176     1.93780
N      1.32217     1.13962    -1.23167
H      1.53332     0.15965    -1.09249
H      0.56813     1.16123    -1.90738
H      2.13406     1.55053    -1.66905
N     -0.51218     2.38226     1.37785
H      0.02533     2.11144     2.19835
H      0.03095     2.15696     0.54730
H     -0.62026     3.38789     1.39352
N      2.25416    -0.56899     1.55059
H      2.05204     0.33920     1.14584
H      3.25657    -0.60254     1.69462
H      1.99173    -1.27521     0.85792
