 36
-509.42829805801637
N     -1.01349     2.98381    -1.95493
H     -1.06385     3.97597    -2.15110
H     -0.04674     2.68637    -2.07671
H     -1.55362     2.52093    -2.67792
N     -0.65862    -1.23876     3.71074
H     -0.13447    -1.85502     4.32014
H      0.01026    -0.82520     3.06118
H     -1.01309    -0.48756     4.29159
N      1.78155     1.59506    -2.48919
H      2.72971     1.35762    -2.21715
H      1.21000     0.75062    -2.35830
H      1.81504     1.77748    -3.48647
N     -1.64997    -2.51094     0.66981
H     -2.16474    -1.70638     0.32322
H     -2.22019    -3.33410     0.52312
H     -1.55230    -2.38789     1.67458
N     -2.14314     0.49541     0.16822
H     -1.74681     1.23404    -0.39888
H     -2.87190     0.90642     0.73397
H     -1.41785     0.18687     0.80301
N      1.32933    -0.16159     1.62735
H      1.28484    -0.58451     0.70380
H      1.16693     0.83594     1.48214
H      2.29320    -0.25424     1.93352
N      0.09573    -0.83342    -2.23867
H      0.69056    -1.53939    -1.80676
H     -0.75944    -0.83201    -1.69742
H     -0.15534    -1.18973    -3.15527
N      0.99712     2.68554     0.78841
H      1.43972     2.51209    -0.10619
H      0.02898     2.88916     0.57682
H      1.41264     3.51576     1.18618
N      1.12170    -2.92914    -0.26609
H      0.13655    -2.76258    -0.01897
H      1.23655    -3.92349    -0.42484
H      1.64954    -2.70700     0.56942
