 24
-339.6101714553625
N     -1.40650    -3.12135     0.85465
H     -0.92909    -3.54811     1.63608
H     -0.74071    -3.00545     0.10430
H     -1.72235    -2.19967     1.13876
N      0.16660     1.87114     1.36801
H      0.89229     1.17861     1.24012
H      0.05357     2.32617     0.47410
H      0.50040     2.55690     2.02960
N      2.02152     2.26796    -1.48041
H      2.08550     2.88523    -0.68152
H      2.15503     1.33340    -1.10990
H      2.81859     2.46705    -2.06945
N     -0.03768    -0.21123    -2.78263
H     -0.87851    -0.22349    -2.21883
H      0.28235     0.74824    -2.78482
H     -0.30145    -0.46472    -3.72386
N     -2.61377    -0.06436     1.81212
H     -1.83601     0.57855     1.70652
H     -3.39956     0.32221     1.30637
H     -2.86378    -0.07099     2.79270
N      1.70592    -0.99796    -0.01438
H      1.27516    -1.06465    -0.93181
H      2.48484    -1.64107     0.01289
H      1.01667    -1.32684     0.64855
