 36
-509.4300819792863
N      0.02927     3.62800    -0.70502
H      0.68610     3.31740     0.00519
H      0.31987     3.18374    -1.56658
H      0.14173     4.62580    -0.81648
N      1.31282    -0.47947     1.64910
H      0.35126    -0.74954     1.86358
H      1.60086    -0.90765     0.77463
H      1.89924    -0.89191     2.36544
N      1.55207     0.72563    -1.52446
H      2.04843     1.45135    -1.02656
H      0.88162     0.34032    -0.86819
H      2.20087    -0.01863    -1.73533
N      2.25774     2.39064     1.57370
H      3.26483     2.31683     1.65442
H      1.93602     2.82559     2.43131
H      1.88639     1.43826     1.57187
N     -1.49018    -1.35930     2.32998
H     -2.31049    -0.78461     2.47638
H     -1.61379    -1.82005     1.41780
H     -1.50716    -2.07725     3.04491
N     -2.01381     1.12104     0.22667
H     -1.51135     0.80169     1.04692
H     -1.51001     1.93910    -0.10975
H     -2.92234     1.44940     0.52668
N      1.35897    -2.51785    -1.17815
H      0.81498    -2.57929    -0.32878
H      0.70119    -2.27765    -1.90633
H      1.73300    -3.43464    -1.37369
N     -1.32116    -0.55554    -2.16160
H     -1.70976    -0.03898    -1.36516
H     -0.45606    -0.07504    -2.38983
H     -1.95160    -0.41427    -2.94229
N     -1.81745    -2.74930    -0.27586
H     -1.33077    -3.61875    -0.46097
H     -2.80448    -2.95087    -0.38235
H     -1.55736    -2.08201    -1.01305
