 36
-509.42915894711814
N     -0.81464     1.83154    -1.35469
H     -0.95239     0.86598    -1.67289
H     -1.45712     1.95066    -0.57969
H     -1.15287     2.44496    -2.08928
N      2.20364     2.82314    -1.01786
H      1.33558     2.33424    -1.23024
H      1.93463     3.77283    -0.79321
H      2.74012     2.87198    -1.87522
N      2.86663     1.42049     2.08680
H      2.70844     1.86447     1.18652
H      3.69843     1.83211     2.48568
H      3.07304     0.45018     1.88819
N      0.56555    -3.25111    -1.16454
H      1.26362    -2.59363    -0.83617
H     -0.18995    -3.22492    -0.49090
H      0.96259    -4.18002    -1.12857
N     -3.57554    -1.69290     0.20427
H     -4.18799    -1.02321     0.65354
H     -3.96450    -2.61148     0.38009
H     -2.68126    -1.64678     0.68772
N     -0.85855    -1.54811     1.70218
H     -0.88897    -0.57707     2.00100
H     -0.85595    -2.11636     2.53900
H      0.04381    -1.66841     1.25904
N      1.64792    -0.50519    -0.29013
H      1.19335    -0.06583     0.49904
H      2.40106     0.11155    -0.56025
H      0.97708    -0.50045    -1.04805
N     -0.42166     1.73673     2.07528
H      0.48367     1.71543     2.53250
H     -0.23754     1.99571     1.11297
H     -0.94745     2.48674     2.49862
N     -1.48072    -0.83834    -2.29835
H     -1.91751    -0.70724    -3.20300
H     -0.90398    -1.67157    -2.36897
H     -2.23131    -1.05811    -1.64390
