 24
-339.6140071268007
N     -0.30323    -2.13113     1.14968
H      0.26050    -1.51939     1.72489
H     -0.25658    -3.05294     1.56051
H      0.17996    -2.16674     0.25701
N      0.19867     1.21258     1.22030
H     -0.28066     1.94782     0.70937
H     -0.44153     0.42583     1.23608
H      0.28382     1.53598     2.17680
N      1.71794    -1.47403    -1.52523
H      1.24492    -1.01269    -2.29224
H      2.27740    -0.75721    -1.06830
H      2.36248    -2.13541    -1.93883
N     -1.59227     2.03680    -1.26643
H     -0.67579     1.61437    -1.34158
H     -2.18494     1.31447    -0.86289
H     -1.91980     2.21974    -2.20636
N     -3.19505    -0.59615     0.18717
H     -3.76309    -1.13295    -0.45430
H     -2.39799    -1.17490     0.43427
H     -3.73801    -0.46181     1.02977
N      3.07112     1.05629     0.11792
H      3.64597     0.88320     0.93332
H      3.30214     1.98345    -0.21783
H      2.10396     1.08255     0.43373
