 20
-283.004822811767
N      0.89296     1.79349    -3.99500
H      0.85774     1.57334    -3.00304
H      0.38892     1.06200    -4.48094
H      1.86216     1.72376    -4.27993
N      0.88235     1.33309    -0.65710
H      0.48497     0.42859    -0.42133
H      0.26092     2.03643    -0.27815
H      1.77284     1.41985    -0.18473
N     -0.20961    -2.20282     2.87768
H     -0.82806    -2.81364     3.39499
H     -0.45086    -1.24996     3.13076
H      0.72805    -2.37143     3.21823
N     -0.52066    -1.64789    -0.45222
H     -0.43671    -2.08853     0.45889
H     -1.42461    -1.89487    -0.83117
H      0.17773    -2.07211    -1.05077
N     -1.14312     0.91310     2.28008
H     -2.00175     1.42784     2.14388
H     -1.13782     0.17116     1.59253
H     -0.38240     1.52542     2.02446
