 24
-339.613172219454
N      0.02820    -1.47925     2.22956
H      0.67583    -1.51155     1.45263
H     -0.17506    -0.49964     2.39448
H      0.50831    -1.84585     3.03880
N     -0.26788     1.96206     2.22219
H      0.50099     2.61899     2.22522
H     -0.63882     1.96584     1.27692
H     -0.98514     2.32972     2.83110
N      1.25889    -1.91521    -2.43340
H      1.83250    -2.74433    -2.35639
H      1.49537    -1.45673    -3.30276
H      1.53188    -1.29068    -1.68253
N     -1.28193     1.91582    -1.10863
H     -0.93898     2.06278    -2.05286
H     -1.40065     0.90375    -0.99542
H     -2.20822     2.33107    -1.08263
N     -1.65623    -1.01800    -0.77956
H     -0.99664    -1.52225    -1.36419
H     -1.57659    -1.40177     0.15495
H     -2.58223    -1.24679    -1.11658
N      1.93754     0.44713     0.02523
H      1.19389     1.01443    -0.36462
H      1.75556     0.42661     1.01893
H      2.79945     0.95841    -0.10095
