 20
-283.0081480354282
N      0.28709     2.46465     0.51754
H      1.01669     2.91750    -0.01912
H     -0.31747     2.00127    -0.15542
H     -0.25712     3.19602     0.95500
N      0.40031    -2.02016    -1.52519
H      0.17582    -2.93007    -1.14271
H      0.97215    -2.18008    -2.34472
H      0.99695    -1.55933    -0.84117
N      2.19135    -0.51347     0.94093
H      1.54726    -0.94152     1.59572
H      3.10771    -0.51980     1.36611
H      1.89040     0.45040     0.86074
N     -1.04739    -0.70746     1.83017
H     -1.92758    -0.73995     2.32534
H     -1.23411    -0.95052     0.86678
H     -0.75138     0.25989     1.81775
N     -1.67771     0.74931    -1.79503
H     -1.52354     1.13066    -2.71933
H     -1.12173    -0.09904    -1.73312
H     -2.64898     0.47210    -1.74833
