 24
-339.6102156280211
N      0.64990    -2.74831     0.53078
H      1.18961    -3.50282     0.12756
H      0.20461    -3.11011     1.36351
H     -0.09467    -2.51277    -0.11679
N     -1.19421     2.11851    -0.10366
H     -0.45870     1.63661     0.40536
H     -0.82759     3.02773    -0.34795
H     -1.95242     2.26891     0.54734
N     -0.94618    -0.91768    -1.59715
H      0.04534    -0.86769    -1.40038
H     -1.04974    -1.07672    -2.58859
H     -1.31085     0.00572    -1.39745
N      2.04581     2.89745    -1.02412
H      1.78542     2.74672    -0.05947
H      2.14617     3.89276    -1.16806
H      1.26616     2.57644    -1.58093
N     -2.63693    -2.23957     1.24468
H     -1.90166    -1.72537     1.70976
H     -2.34360    -3.20558     1.19466
H     -2.65213    -1.89062     0.29481
N      1.59224     0.48028     1.18359
H      2.34622     0.71520     0.55127
H      1.95277     0.55997     2.12361
H      1.36683    -0.49657     1.03226
