 24
-339.6113430597958
N      2.34722    -1.54321     2.85398
H      1.98828    -2.43536     3.17075
H      2.60446    -1.65260     1.87719
H      3.19825    -1.36459     3.37249
N      0.07662     0.61645     1.51375
H     -0.80541     0.14321     1.33892
H      0.60685     0.05344     2.17226
H     -0.13938     1.48944     1.97697
N      0.15805     0.87474    -1.46168
H      0.28729     0.80356    -0.44505
H      1.07546     0.85679    -1.88801
H     -0.23310     1.78949    -1.65684
N     -2.17695    -0.92026    -0.32616
H     -1.41516    -0.48927    -0.84579
H     -2.05307    -1.92411    -0.36529
H     -3.02963    -0.71543    -0.82918
N     -2.89578     1.81763    -2.28544
H     -3.77748     1.64462    -2.74850
H     -3.01671     1.61294    -1.30289
H     -2.22505     1.14325    -2.62856
N      2.76085    -0.86226    -0.21973
H      3.56467    -0.56573    -0.75362
H      1.98486    -1.00687    -0.84895
H      2.49158    -0.10709     0.39545
