 36
-509.4267754610188
N     -0.05594     2.08895    -2.47516
H     -0.68418     1.31794    -2.69498
H     -0.55002     2.70734    -1.84534
H      0.11372     2.60704    -3.32640
N      2.33768     0.49329    -0.58491
H      1.87602     1.03850    -1.30807
H      3.30542     0.40688    -0.87295
H      1.91579    -0.43455    -0.63355
N      2.36471     2.37772     1.87531
H      2.28120     1.66919     1.14247
H      2.78068     3.18855     1.43077
H      3.03848     2.03815     2.55144
N      0.69380    -1.91904    -1.03948
H      1.08339    -2.46404    -1.79541
H      0.02116    -2.48055    -0.53454
H      0.19794    -1.13579    -1.44596
N     -2.22387    -0.34537     0.16896
H     -1.71200     0.38539     0.65980
H     -3.20441    -0.17336     0.35062
H     -2.00120    -1.23135     0.60574
N     -1.07635    -3.38158     1.54724
H     -1.79145    -3.61961     2.22533
H     -0.38421    -4.12231     1.58909
H     -0.61210    -2.52501     1.86964
N      0.34877    -0.91965     2.31067
H     -0.11600    -0.02362     2.38766
H      0.86952    -1.05077     3.16791
H      1.02241    -0.82097     1.56117
N     -0.61948     2.14544     0.95034
H      0.21738     2.44917     1.43442
H     -0.32079     1.75917     0.06210
H     -1.18784     2.95502     0.74509
N     -1.85384    -0.49353    -2.73727
H     -2.75801    -0.42410    -3.19043
H     -1.50902    -1.42656    -2.93105
H     -2.00510    -0.44141    -1.72000
