 40
-566.0319706027882
N     -1.67114     1.72721    -1.11838
H     -2.15739     0.97690    -0.63984
H     -2.36094     2.42580    -1.35642
H     -1.31828     1.34065    -1.98642
N     -0.45076    -2.16921     2.01621
H     -1.24392    -1.74757     2.48805
H     -0.62633    -2.11875     1.01869
H     -0.43344    -3.14715     2.27555
N     -0.14715    -1.82933    -1.40641
H      0.60369    -1.70661    -0.73341
H      0.06743    -2.67115    -1.92217
H     -0.04399    -1.06223    -2.05911
N     -3.29055    -1.11540    -0.24589
H     -4.01294    -1.57681    -0.78161
H     -2.42630    -1.21187    -0.77026
H     -3.15910    -1.64424     0.60557
N     -3.26572    -0.38181     3.06686
H     -3.53552    -0.06292     2.14575
H     -4.10850    -0.63273     3.56377
H     -2.85642     0.41247     3.54011
N      1.94843    -0.56999     2.92199
H      2.73923    -1.20140     2.88180
H      1.76077    -0.39068     3.90008
H      1.15706    -1.09074     2.54066
N      2.70135    -0.94609    -0.02180
H      2.62046    -0.43486     0.85077
H      3.67770    -1.13979    -0.19302
H      2.38609    -0.32637    -0.75627
N      1.14275     2.27944     0.62893
H      0.26126     2.17404     0.13055
H      1.19568     1.50526     1.27866
H      1.08493     3.12959     1.17203
N      2.57560     1.90193    -1.85671
H      2.89530     2.78701    -2.23543
H      2.11329     2.09445    -0.95781
H      3.41578     1.37822    -1.63805
N      0.40313     1.03807    -3.82975
H      1.13652     1.25940    -3.15442
H      0.03520     1.92846    -4.14568
H      0.85048     0.61038    -4.63099
