 24
-339.6044139425315
N      1.53105     0.92117     0.97675
H      0.93787     1.12425     1.77112
H      1.87306    -0.02403     1.09787
H      2.33997     1.52762     1.02185
N      0.06678    -1.78111    -0.68640
H      0.33025    -0.89307    -0.27870
H      0.53997    -2.50815    -0.16900
H      0.44901    -1.79931    -1.62440
N      1.26529    -1.72767    -4.07100
H      2.20680    -1.89888    -4.39497
H      0.64432    -2.31952    -4.60550
H      1.03556    -0.77156    -4.30701
N      0.51617     1.15798    -2.44082
H      0.61341     1.63358    -1.55324
H     -0.32597     0.60318    -2.37051
H      1.27665     0.49441    -2.48178
N     -3.13798     0.06103     2.58599
H     -2.46328    -0.12009     1.85169
H     -3.52752    -0.83435     2.84977
H     -3.87989     0.60848     2.16966
N     -0.25975     1.33741     3.55898
H     -1.08072     1.87857     3.31277
H     -0.61265     0.42178     3.81205
H      0.13321     1.74898     4.39561
