 40
-566.0363268648101
N      3.03108    -3.23241     1.06947
H      2.30935    -2.61666     1.42846
H      2.80849    -4.16743     1.38537
H      3.90605    -2.96345     1.49904
N      0.36031    -1.37689     2.07808
H      0.22427    -1.52856     3.06921
H      0.61987    -0.40426     1.95502
H     -0.54938    -1.49630     1.64410
N     -3.48062    -1.58495    -2.86090
H     -3.31384    -2.38078    -3.46170
H     -4.23293    -1.04699    -3.27013
H     -2.65058    -1.00152    -2.89666
N     -0.77803     3.21394    -0.66359
H     -1.45057     3.95418    -0.81623
H     -0.99667     2.75740     0.22575
H      0.11747     3.66173    -0.51946
N     -2.41291    -0.70469     0.25368
H     -3.14130    -1.31768    -0.08314
H     -2.84672     0.17969     0.47601
H     -1.83123    -0.51463    -0.55269
N     -1.23017     1.95387     1.94732
H     -1.51369     0.98033     1.93931
H     -0.30278     1.98047     2.36565
H     -1.84769     2.44621     2.57844
N     -0.67270     0.41350    -2.85343
H     -0.38916     0.66859    -3.78911
H     -0.90412     1.27587    -2.37053
H      0.13994     0.02690    -2.38651
N      1.18849    -1.76569    -1.33591
H      0.48252    -2.02928    -2.00710
H      1.95189    -2.42286    -1.40500
H      0.78052    -1.91178    -0.42009
N      2.02293     1.45835     2.65237
H      2.05237     1.54933     1.63377
H      2.68598     2.10881     3.05463
H      2.35343     0.52490     2.86365
N      1.90813     1.42015    -0.30110
H      2.65233     1.86449    -0.82250
H      1.02227     1.74359    -0.68039
H      1.97167     0.42868    -0.51119
