 12
-169.7974056935954
N      0.54880     2.91562    -0.00354
H      0.11688     3.14271    -0.89101
H      0.72550     1.91359    -0.00025
H     -0.13451     3.10445     0.71977
N      1.23555    -0.37865     0.00789
H      1.79250    -0.66029    -0.78693
H      1.75408    -0.61586     0.84249
H      0.39312    -0.94183     0.00347
N     -1.67657    -2.41337     0.00091
H     -2.21153    -2.26446    -0.84399
H     -1.49520    -3.40547     0.07218
H     -2.26788    -2.15817     0.78032
