 24
-339.60799615404756
N     -0.56498    -2.37295     2.14517
H      0.25361    -1.77769     2.15734
H     -0.34459    -3.16522     1.55380
H     -1.28953    -1.83948     1.66892
N      0.59218     0.91173     0.37850
H     -0.10203     0.23409     0.66786
H      1.50445     0.56620     0.65327
H      0.42468     1.75092     0.91922
N      0.77064     1.12465    -2.74224
H      1.26899     1.97804    -2.96563
H      0.62397     1.10775    -1.73255
H      1.38630     0.34808    -2.95469
N     -2.19919     0.50078    -2.29284
H     -2.74661     1.34500    -2.42033
H     -1.27195     0.68755    -2.66881
H     -2.62900    -0.21312    -2.87054
N     -2.52642    -0.17560     0.60671
H     -2.57800     0.70505     1.10928
H     -2.26381     0.05203    -0.35694
H     -3.47472    -0.53571     0.57167
N      3.78991    -0.17261     1.85290
H      3.97864     0.36199     2.69082
H      3.72716    -1.14333     2.12997
H      4.59767    -0.08518     1.25084
