 36
-509.426970011813
N     -4.21031     0.20731    -1.38015
H     -4.94241     0.85111    -1.65688
H     -4.51156    -0.71636    -1.66843
H     -4.18062     0.21352    -0.36324
N      5.02920    -1.01132    -0.11461
H      5.47642    -1.02194    -1.02362
H      5.61643    -0.45945     0.49929
H      4.15336    -0.49674    -0.21917
N      2.19924    -2.37887     0.85697
H      1.72555    -2.06273     0.01792
H      1.97403    -3.35694     0.97709
H      3.19656    -2.31330     0.67093
N      1.18521    -0.29795     2.63880
H      1.61918    -0.97884     2.00229
H      0.59367    -0.84348     3.25870
H      1.92708     0.06914     3.22745
N     -3.70958     0.32939     1.69563
H     -3.59297    -0.53114     2.21815
H     -2.79104     0.60263     1.34425
H     -3.99791     1.04251     2.35402
N     -0.22573    -0.74782    -1.66430
H     -0.42876    -1.61210    -2.15092
H     -0.81542    -0.74426    -0.84001
H     -0.58813     0.01746    -2.23508
N     -1.74378     1.66119    -2.54949
H     -1.63723     2.45215    -1.92607
H     -2.03691     2.02453    -3.44673
H     -2.50507     1.10105    -2.16594
N     -0.94967     1.35388     0.88318
H     -0.33465     0.80727     1.48548
H     -0.58323     1.27567    -0.05805
H     -0.85272     2.32290     1.16461
N      2.55058     0.69593    -0.45750
H      1.83932     0.35530    -1.09789
H      2.07510     0.90473     0.41210
H      2.89192     1.57246    -0.83153
