 24
-339.6072138716985
N     -1.09426    -1.77598     0.39764
H     -0.38574    -2.43547     0.69944
H     -1.98793    -2.20272     0.59914
H     -1.00083    -1.74096    -0.61038
N      2.97716     2.36909     1.66487
H      3.74389     1.71169     1.73244
H      2.44302     2.11274     0.84334
H      3.37098     3.28614     1.49644
N      1.43401    -3.46398    -0.97311
H      1.43979    -4.00804    -1.82719
H      1.26926    -2.49491    -1.23831
H      2.36666    -3.51097    -0.58197
N     -4.57027     1.99930     0.43975
H     -3.95065     1.20635     0.54340
H     -5.16488     2.02595     1.25825
H     -5.15756     1.81967    -0.36457
N      1.01661    -0.41371    -1.91051
H      2.01049    -0.34318    -2.10356
H      0.54530    -0.02993    -2.72062
H      0.82362     0.20498    -1.12214
N      0.17698     1.08094     0.61608
H     -0.14431     0.11642     0.69241
H      0.57036     1.35822     1.50723
H     -0.65234     1.64911     0.48073
