 36
-509.426025554803
N     -0.11565     1.41437    -2.02082
H      0.01318     1.83762    -2.93487
H      0.56795     1.86770    -1.42168
H      0.16995     0.43571    -2.10353
N      0.81672    -0.09188     0.69207
H      1.52977     0.62806     0.72839
H      1.06721    -0.75321    -0.03176
H     -0.02754     0.36997     0.37047
N      1.92866     3.04466     0.79140
H      2.49833     2.99975     1.63071
H      1.99787     4.00080     0.45961
H      0.95798     2.89795     1.09723
N      0.35962    -4.21585    -1.91030
H      1.17031    -4.80624    -2.04568
H      0.44151    -3.78265    -0.99162
H     -0.46330    -4.80447    -1.90445
N     -2.99201     2.03393    -1.01028
H     -2.08910     1.74184    -1.38083
H     -3.59639     1.22083    -1.00276
H     -3.38276     2.69430    -1.67128
N      0.59349    -3.16462     1.04362
H     -0.18295    -3.63139     1.49857
H      1.44014    -3.52179     1.47256
H      0.53191    -2.18354     1.29721
N      0.39797    -1.43529    -2.80708
H     -0.45643    -1.17019    -3.28434
H      1.14495    -1.32115    -3.48319
H      0.33550    -2.42949    -2.58989
N     -0.14024    -0.05544     3.57399
H      0.63611    -0.18076     4.21022
H     -0.78003    -0.82430     3.72713
H      0.22602    -0.13643     2.62574
N     -0.84262     2.65624     1.70983
H     -1.08269     3.51646     2.18816
H     -1.58149     2.50009     1.02805
H     -0.89187     1.91435     2.40468
