 24
-339.6017459066022
N     -0.74771    -3.05568     0.73939
H     -1.47614    -2.54773     1.23752
H      0.05329    -3.11828     1.35643
H     -0.48250    -2.46577    -0.03991
N     -1.88266     1.75433     1.87715
H     -2.50214     2.53152     1.67330
H     -1.34137     2.01713     2.69370
H     -1.22692     1.68250     1.10229
N      0.37708     1.67385    -0.23257
H      0.33167     1.64774    -1.24478
H      0.86437     2.52245     0.02622
H      0.95639     0.89615     0.05887
N      1.24210     0.94892    -3.44619
H      1.62595     1.55155    -4.16166
H      2.02011     0.54032    -2.94679
H      0.76052     0.19438    -3.91699
N     -3.17563    -1.24058     2.16395
H     -4.03755    -1.29507     1.63460
H     -3.41529    -1.33874     3.14239
H     -2.79398    -0.30527     2.03308
N      3.87407    -0.17271    -1.00220
H      4.44363     0.65686    -0.90064
H      3.79645    -0.58717    -0.08261
H      4.40005    -0.82603    -1.56757
