 36
-509.4286681602167
N      0.43123     1.16756     1.11110
H      0.92450     2.03955     0.97858
H      1.12728     0.43396     1.15108
H     -0.09242     1.01353     0.25649
N      0.71433     2.87187    -1.70674
H      0.70335     1.98789    -2.20585
H     -0.20678     2.93688    -1.29382
H      0.77963     3.60465    -2.39861
N      2.94586    -1.60527     0.97574
H      2.90911    -0.94278     0.19205
H      3.39609    -1.13562     1.75419
H      3.56936    -2.35727     0.70015
N      2.87762     0.28715    -1.27850
H      3.79438     0.49365    -1.65220
H      2.32837    -0.11838    -2.02912
H      2.43329     1.17362    -1.05650
N     -3.29053    -1.38324     0.68620
H     -4.13729    -1.90793     0.84858
H     -2.67222    -1.95125     0.12434
H     -2.83027    -1.24620     1.57955
N     -0.20792    -0.25035    -2.49676
H     -0.43394    -0.81274    -3.30682
H     -0.05321    -0.88717    -1.71098
H     -1.04633     0.27392    -2.27162
N      0.02617    -2.08670    -0.12971
H      0.96146    -2.15643     0.26623
H     -0.56009    -1.68661     0.59609
H     -0.31086    -3.03140    -0.28028
N     -1.14628    -0.60373     3.23742
H     -0.62974     0.06727     2.67404
H     -1.53514    -0.09478     4.02034
H     -0.45899    -1.24226     3.61676
N     -2.50345     1.76037    -0.42818
H     -2.93516     0.85712    -0.26230
H     -2.06200     2.00695     0.44912
H     -3.24893     2.42231    -0.58510
