 36
-509.4292669165616
N     -1.23139     1.34775     1.59766
H     -2.15673     1.28628     1.19736
H     -0.76778     2.12946     1.15114
H     -0.73528     0.52061     1.28668
N      1.47496     0.32290     3.05614
H      2.04845     0.30741     3.88664
H      0.70184     0.95389     3.22879
H      1.06034    -0.59693     2.94549
N     -0.22794     1.72568    -2.45771
H     -0.29144     2.33699    -3.26066
H      0.32338     2.19950    -1.74807
H      0.31600     0.91437    -2.73861
N      1.86264    -1.82421     0.25505
H      1.01424    -2.15392     0.70100
H      2.57833    -2.51428     0.43905
H      2.13194    -0.99231     0.76593
N     -3.00160     1.01839    -1.45315
H     -2.04388     1.28826    -1.69384
H     -3.29568     0.37907    -2.18298
H     -3.58318     1.84363    -1.54419
N     -1.46062    -1.46633    -0.47407
H     -0.61092    -1.33737    -1.01060
H     -1.97024    -2.21877    -0.92070
H     -2.01190    -0.61626    -0.58040
N      1.78130    -1.08868    -2.61210
H      2.73649    -0.88500    -2.88499
H      1.82230    -1.44730    -1.65442
H      1.47748    -1.84602    -3.21315
N      1.74262     1.85133    -0.09350
H      1.74040     1.04905    -0.70982
H      2.68427     2.21464    -0.08352
H      1.55028     1.49535     0.83464
N     -0.85726    -1.86742     2.39153
H     -1.17724    -1.02974     2.86474
H     -1.18891    -1.79173     1.42347
H     -1.32524    -2.64770     2.83600
