 36
-509.42620779458167
N     -2.25246     2.07821     3.97721
H     -2.39310     1.74925     4.92331
H     -2.79479     2.92535     3.86971
H     -2.66757     1.38419     3.36542
N      0.19605     1.20825    -1.18479
H      0.79880     0.51831    -0.74535
H      0.20929     1.00547    -2.18130
H      0.64926     2.10790    -1.07528
N      3.47345    -1.42805    -0.12257
H      2.59398    -1.38286     0.38252
H      4.07915    -2.05155     0.39632
H      3.88145    -0.50411    -0.06051
N      0.41304    -1.16804     1.24783
H      0.03047    -1.96816     1.73185
H      0.52778    -0.42015     1.92440
H     -0.30341    -0.86088     0.60238
N     -2.59675     0.32198    -0.78917
H     -3.26329     1.07853    -0.89735
H     -1.66258     0.72320    -0.88825
H     -2.73120    -0.28865    -1.58777
N     -3.05363    -0.84823     2.31010
H     -2.90192    -0.57193     1.34289
H     -2.13374    -1.03865     2.68461
H     -3.55969    -1.72430     2.30723
N      0.67396     0.30664    -4.41374
H      1.17259    -0.52871    -4.11961
H     -0.06206     0.00507    -5.03875
H      1.32451     0.85606    -4.96133
N      0.72718     1.98989     2.28525
H      0.27827     2.07520     1.38151
H     -0.02333     2.06800     2.96506
H      1.33287     2.79106     2.40049
N      2.29736    -2.50315    -3.22615
H      3.07879    -2.98526    -3.64934
H      2.61876    -2.13845    -2.33523
H      1.59403    -3.19768    -3.01114
