 24
-339.6111770264584
N      2.45634    -0.93070    -0.70084
H      3.43342    -0.76390    -0.89496
H      1.96887    -0.05328    -0.83704
H      2.36636    -1.15290     0.28377
N     -1.50294     2.74987     3.06944
H     -2.50070     2.89941     3.14846
H     -1.09667     3.62213     2.75568
H     -1.36023     2.06963     2.32814
N      0.13552    -2.19664    -2.88705
H      0.55227    -2.48200    -3.76300
H      0.89372    -1.96909    -2.25122
H     -0.33654    -3.00308    -2.50008
N     -1.74571     0.70543    -2.61393
H     -1.35705     1.38362    -3.25568
H     -1.19938    -0.14428    -2.72100
H     -2.67999     0.49329    -2.93833
N     -1.02362     0.30170     0.77223
H     -1.19607     0.67629    -0.15510
H     -0.13214    -0.17281     0.73281
H     -1.72184    -0.41911     0.90863
N      1.63584    -0.91952     2.64002
H      0.81843    -0.32368     2.69274
H      1.40818    -1.76760     3.14213
H      2.35886    -0.44723     3.16755
