 36
-509.43012486571934
N      0.53703     3.01047     1.74801
H      0.56645     2.85564     2.74994
H      0.77881     2.11475     1.32050
H      1.28913     3.65880     1.54517
N      0.64316     2.20505    -2.18391
H     -0.35990     2.12725    -2.07633
H      0.99536     2.18494    -1.23453
H      0.82275     3.12834    -2.54971
N     -1.89169    -0.11143    -1.91333
H     -2.57467    -0.16797    -2.65395
H     -1.01428     0.16540    -2.33508
H     -1.74327    -1.05553    -1.57196
N     -1.29800    -1.50206     1.93604
H     -1.84693    -1.89768     2.69281
H     -1.59919    -0.52389     1.82323
H     -1.59043    -1.99699     1.09878
N     -2.24673     1.14349     1.24660
H     -1.63080     1.94087     1.36832
H     -2.28223     0.92533     0.25384
H     -3.17994     1.40521     1.53228
N     -0.09694    -2.66917    -0.91595
H      0.22590    -2.40178     0.00551
H      0.21279    -3.61539    -1.07813
H      0.40288    -2.07716    -1.57278
N      1.64152    -0.78638    -3.28933
H      2.63049    -0.98447    -3.24072
H      1.33701    -1.01416    -4.22500
H      1.52319     0.21333    -3.16621
N      1.66695    -1.58238     3.00796
H      1.70016    -1.24017     3.96098
H      0.70169    -1.48487     2.69109
H      1.85549    -2.57680     3.04659
N      1.11395     0.37816     0.37843
H      0.19359    -0.04146     0.35994
H      1.52612     0.20461    -0.53025
H      1.66030    -0.13197     1.06776
