 16
-226.4043141244801
N      1.61285     1.29634     1.09266
H      0.63670     1.32809     1.37778
H      2.07275     0.59966     1.66604
H      2.03042     2.18965     1.32029
N     -1.50344     1.13633     1.25760
H     -2.04047     1.96296     1.02455
H     -1.21125     0.71232     0.37746
H     -2.13518     0.49546     1.72132
N     -0.17037     0.30740    -1.35514
H     -0.43919     0.98967    -2.05281
H      0.57674     0.71821    -0.79823
H      0.20928    -0.48292    -1.86087
N      0.17957    -2.93814    -1.17864
H     -0.59813    -3.58453    -1.20481
H      0.92781    -3.37429    -0.65497
H     -0.12107    -2.13233    -0.64530
