 24
-339.61330198123227
N      3.31661    -1.06999    -0.37372
H      4.04715    -1.70710    -0.08174
H      3.75221    -0.38816    -0.98229
H      3.01058    -0.56927     0.45413
N     -0.29067     1.61434     0.98745
H      0.63647     2.00774     0.90344
H     -0.46986     1.11824     0.12320
H     -0.95923     2.37284     1.01931
N      0.39669    -2.29428    -1.88739
H      1.17906    -1.86607    -1.40623
H      0.48117    -3.29217    -1.74916
H      0.52626    -2.11883    -2.87437
N     -2.29581    -0.69447    -0.32654
H     -1.84954    -0.53782     0.56875
H     -3.07243    -1.32297    -0.17470
H     -1.62333    -1.17353    -0.91654
N     -3.15349     2.63892    -0.43008
H     -3.01415     1.63432    -0.50062
H     -4.11296     2.78615    -0.14226
H     -3.05830     3.01173    -1.36628
N      1.80959    -0.16803     2.29727
H      1.97052    -0.20366     3.29534
H      0.94389     0.33290     2.12785
H      1.65143    -1.11818     1.98421
