 24
-339.6131886831404
N     -0.72037    -1.86693     0.77614
H     -0.09441    -2.01975    -0.00411
H     -0.60908    -0.88864     1.01307
H     -0.37183    -2.40157     1.55886
N      0.92069     2.78019     1.08948
H      0.20796     2.27594     0.57088
H      0.50930     3.06030     1.97000
H      1.11933     3.62446     0.56862
N      1.48525    -0.84673    -1.87119
H      1.89610    -1.56238    -2.45372
H      1.44719     0.00125    -2.42407
H      2.13760    -0.64903    -1.11927
N     -1.26538     1.07051    -0.88053
H     -1.53005     1.54638    -1.73285
H     -0.66550     0.30150    -1.15689
H     -2.11533     0.65252    -0.51984
N     -3.96997    -1.40021     0.05243
H     -3.04816    -1.75274     0.29840
H     -4.60905    -1.68731     0.78379
H     -4.24893    -1.87741    -0.79550
N      3.42855     0.38366     0.69443
H      4.26590     0.92086     0.51371
H      2.67686     1.04970     0.84378
H      3.56598    -0.10207     1.57028
