 36
-509.43003879885873
N     -1.68574     2.65112    -1.83670
H     -1.16517     3.31066    -2.40049
H     -1.27151     1.73065    -1.97662
H     -2.62232     2.61560    -2.21998
N     -0.39274     2.25656     1.22878
H     -0.90789     2.63441     0.43945
H     -0.95717     1.53691     1.66879
H     -0.27999     3.00012     1.90383
N      1.81171    -1.38713     2.11459
H      1.17741    -1.07353     2.83837
H      2.64631    -1.71075     2.58609
H      2.05753    -0.54879     1.58972
N      0.18099    -3.07710    -0.37200
H      0.76956    -2.72735     0.37923
H     -0.77377    -2.94684    -0.06337
H      0.34185    -4.06999    -0.45411
N     -3.27782     0.14448    -0.37569
H     -4.26240     0.06198    -0.58489
H     -3.06000     1.12440    -0.25630
H     -2.75805    -0.15040    -1.18981
N     -1.56966    -0.79235     2.39436
H     -2.21315    -0.69325     1.61635
H     -0.78000    -1.32751     2.06031
H     -2.03329    -1.33692     3.10751
N     -0.15847     0.06918    -1.89472
H      0.02578     0.48892    -0.99152
H     -0.24237    -0.92444    -1.72507
H      0.67549     0.19136    -2.45233
N      3.05012    -1.10270    -1.65142
H      3.26308    -0.82461    -0.70092
H      2.26830    -1.74048    -1.57365
H      3.83462    -1.64570    -1.98470
N      2.26879     1.25170     0.45328
H      2.26239     1.04044    -0.53915
H      1.33655     1.59468     0.71157
H      2.91825     2.02026     0.57965
