 40
-566.0315684919476
N     -1.56790    -3.33404    -0.98723
H     -2.33272    -2.90505    -0.48416
H     -1.86092    -4.26496    -1.24743
H     -0.81993    -3.43348    -0.30420
N     -1.88414    -2.68900     3.72019
H     -2.41299    -3.54793     3.77664
H     -1.90666    -2.25315     4.63193
H     -2.37677    -2.07679     3.08155
N      2.24840     2.89784    -1.97352
H      2.98836     2.44708    -2.49889
H      1.37252     2.50611    -2.32302
H      2.25878     3.86855    -2.26613
N      1.26629     3.43660     1.18941
H      1.89460     3.95473     1.78918
H      1.79562     3.14135     0.37298
H      0.58776     4.09542     0.82896
N     -1.80104     2.66924     0.13585
H     -2.40282     3.40043     0.48593
H     -2.29579     1.79587     0.25151
H     -0.96774     2.62982     0.71026
N     -1.71109    -0.74192     1.07019
H     -1.11058    -1.35991     1.60282
H     -1.49051    -0.93148     0.09844
H     -1.34985     0.18349     1.24548
N      0.93057    -3.04249     1.44607
H      1.63343    -3.76462     1.40608
H      1.41713    -2.15486     1.40628
H      0.49187    -3.10001     2.35382
N      0.87478    -1.32553    -2.10012
H      1.22105    -1.43212    -1.15542
H      0.05226    -1.91658    -2.16443
H      1.56825    -1.73041    -2.71259
N     -0.37218     1.73169    -2.85185
H     -0.87860     2.09771    -2.05072
H     -1.00727     1.71394    -3.63741
H     -0.12470     0.77083    -2.62551
N      2.37526     0.06289     0.70609
H      2.14959     0.31670    -0.24696
H      3.37628     0.13499     0.80556
H      1.97249     0.79459     1.27294
