 24
-339.60868185923624
N     -0.88095    -0.45968    -2.55513
H     -1.24247    -1.12913    -3.21818
H     -0.04038    -0.05929    -2.95351
H     -0.58860    -0.96633    -1.72899
N      1.62268     1.54462    -1.39244
H      2.14692     1.94318    -0.62712
H      0.72414     2.01526    -1.40739
H      1.44837     0.57819    -1.15389
N      0.93425    -1.91771     0.15402
H      1.72364    -2.44182    -0.19622
H      1.22103    -1.51680     1.03802
H      0.22566    -2.59492     0.40798
N     -1.65565     2.70893    -1.75898
H     -1.70342     1.72857    -2.02272
H     -2.44982     2.89292    -1.16104
H     -1.77995     3.24818    -2.60620
N     -0.55196    -2.58363     3.09374
H     -1.53368    -2.78281     3.22711
H     -0.06234    -2.90080     3.91890
H     -0.45607    -1.57580     3.06757
N      0.45656     0.75644     2.12230
H      0.58210     0.49047     1.15559
H     -0.30355     1.42300     2.11385
H      1.28551     1.26368     2.40422
