 28
-396.2162183724073
N      1.35797    -2.70804     0.37310
H      1.29317    -2.36196    -0.58055
H      2.18466    -2.29378     0.79155
H      1.53105    -3.70526     0.32013
N      0.53943     1.53937    -1.98816
H     -0.32632     1.01477    -1.93718
H      0.64669     1.88407    -2.93187
H      1.27732     0.87163    -1.80956
N      0.71561    -1.84243    -2.46535
H     -0.09079    -1.39844    -2.02651
H      1.09096    -1.17828    -3.12989
H      0.38031    -2.63631    -2.99760
N     -1.45855    -0.65017    -0.66884
H     -1.04297    -1.42872    -0.17335
H     -1.29820     0.17778    -0.09672
H     -2.45597    -0.81046    -0.69920
N     -0.59378    -1.58607     2.77989
H     -1.07698    -2.34294     3.24751
H     -1.29861    -1.00990     2.33694
H     -0.03074    -1.98785     2.03363
N      0.44676     3.89364     0.28852
H      0.44207     3.14657    -0.40261
H     -0.30632     4.52560     0.04589
H      1.32022     4.39640     0.19841
N     -0.95289     1.56501     1.73275
H     -0.33919     2.30827     1.41429
H     -1.63126     1.99795     2.34704
H     -0.40377     0.93096     2.30381
