 36
-509.4325429696594
N     -2.14717     2.58737    -0.71624
H     -1.24558     2.40429    -0.27669
H     -2.45902     3.50284    -0.41853
H     -1.96084     2.64760    -1.71000
N      0.66325     2.02036     0.23276
H      1.09745     1.53779    -0.54545
H      1.10305     2.92494     0.32945
H      0.89512     1.49236     1.06909
N      0.25441    -2.38876    -0.71068
H      0.26754    -3.38148    -0.90190
H      1.21684    -2.07667    -0.61666
H     -0.17136    -2.27208     0.20011
N      2.90492    -0.94594    -0.44445
H      2.51473    -0.55594    -1.29829
H      2.82428    -0.22819     0.26364
H      3.88809    -1.11365    -0.60600
N     -2.06083    -0.39227     0.82474
H     -2.84459     0.20597     0.60405
H     -1.24477     0.20303     0.74669
H     -1.98325    -1.06792     0.07662
N     -1.22622    -0.00033    -2.66413
H     -0.76031    -0.77628    -2.20021
H     -1.85216    -0.39114    -3.35356
H     -1.78455     0.47130    -1.96208
N      1.54967     0.91268    -2.89390
H      0.57224     0.62243    -2.94914
H      1.53924     1.88977    -2.62874
H      1.94643     0.87060    -3.82370
N      1.50554    -0.34853     2.59520
H      2.17338    -0.24342     3.34512
H      0.63022    -0.62761     3.02898
H      1.81055    -1.13269     2.03161
N     -1.49870    -1.51002     3.86297
H     -1.85450    -1.24418     2.94934
H     -2.01735    -0.97830     4.55040
H     -1.72243    -2.48746     4.00122
