 36
-509.42933979042346
N     -1.56797    -0.37232    -3.62760
H     -2.47160    -0.72343    -3.91309
H     -1.02181    -0.23636    -4.46763
H     -1.11475    -1.12098    -3.11110
N      1.14167     2.74973     0.35437
H      1.13178     3.64332    -0.12306
H      1.97551     2.25605     0.06177
H      0.34167     2.19566     0.02764
N     -0.27842     2.45233     2.94601
H     -0.86527     3.26824     3.08588
H      0.32422     2.40240     3.76019
H      0.30804     2.64528     2.13053
N      0.38206    -2.82075    -2.09647
H      1.05060    -2.05233    -2.11859
H      0.38811    -3.16491    -1.14583
H      0.75565    -3.56166    -2.67464
N     -2.04626     0.07411     2.73682
H     -1.42578     0.89191     2.76232
H     -2.93257     0.33898     3.15101
H     -1.64079    -0.62405     3.35163
N     -0.89320     0.79676    -0.55355
H     -0.30718    -0.02937    -0.55925
H     -1.64843     0.62806     0.09802
H     -1.28820     0.88707    -1.48419
N      2.09553    -0.09304    -1.79170
H      2.18556    -0.19398    -0.77483
H      2.98454     0.18725    -2.18494
H      1.44778     0.66720    -1.95790
N      1.94613    -0.47747     1.14513
H      2.67723    -0.73214     1.79211
H      1.46410     0.32549     1.52925
H      1.27145    -1.23673     1.14883
N     -0.93650    -2.21197     0.95990
H     -1.48073    -2.98954     1.30903
H     -1.31727    -1.36303     1.37684
H     -1.12512    -2.15171    -0.03383
