 36
-509.4278143637298
N     -1.52348     2.89474    -1.03931
H     -0.84607     2.61898    -0.32662
H     -2.05014     3.66774    -0.65127
H     -0.99627     3.27281    -1.81748
N      3.02297     1.43668     1.89002
H      3.73854     2.07379     1.56056
H      3.28425     0.49960     1.58317
H      3.08844     1.44542     2.90208
N      1.83103     0.11839    -1.02267
H      2.36313     0.27272    -1.87362
H      0.93151    -0.28232    -1.31752
H      1.62910     1.03804    -0.64543
N      3.50871    -1.45818     0.81518
H      2.93563    -2.20015     1.19983
H      2.92527    -0.96909     0.12383
H      4.27441    -1.90409     0.32486
N     -3.16745    -2.61110    -1.34862
H     -3.31022    -3.29259    -0.61299
H     -3.92508    -2.73159    -2.01012
H     -3.28322    -1.69436    -0.91920
N     -2.98933    -0.03448     0.28386
H     -2.15938    -0.53526     0.59233
H     -3.61397     0.04308     1.07612
H     -2.69779     0.90202     0.02921
N     -0.08437    -1.57280     1.08601
H      0.72282    -0.97168     1.17725
H     -0.08169    -1.90422     0.12920
H      0.03289    -2.36464     1.69936
N      0.15876     1.90764     1.36812
H      1.16536     1.75073     1.50355
H     -0.14158     2.54465     2.09903
H     -0.31600     1.02947     1.55516
N     -0.77264    -0.72689    -2.16373
H     -1.19361     0.17311    -1.95699
H     -0.56912    -0.72095    -3.15594
H     -1.49293    -1.42798    -2.00699
