 20
-283.0066675531284
N      1.41610     2.57808    -0.39346
H      1.46635     2.94947    -1.33477
H      1.85688     3.26193     0.21032
H      2.00513     1.74919    -0.37436
N     -0.05287    -1.10351     0.73091
H     -0.36132    -1.82029     0.08632
H     -0.09900    -1.49830     1.66147
H     -0.70131    -0.32065     0.69093
N      2.91033    -0.19881    -0.16232
H      1.95594    -0.37344     0.15107
H      3.07901    -0.83138    -0.93586
H      3.52727    -0.47415     0.59304
N     -2.49804    -3.10541    -0.80859
H     -2.83119    -2.97223    -1.75419
H     -3.15456    -3.70588    -0.32777
H     -2.54223    -2.20170    -0.35564
N     -1.71035     1.67930     0.53169
H     -1.89575     2.25360     1.34403
H     -0.73752     1.83396     0.27524
H     -2.27290     2.04097    -0.22782
