 36
-509.4317078785662
N     -1.76816     1.63849    -2.16160
H     -2.24688     2.12223    -2.90632
H     -1.02706     2.24529    -1.83550
H     -1.34285     0.80472    -2.55032
N     -0.33772     3.40368     0.31652
H     -1.29422     3.19345     0.06137
H     -0.07124     2.69992     1.00478
H     -0.35148     4.30361     0.77744
N      2.76487    -0.27444     0.86677
H      3.76125    -0.38629     0.70490
H      2.39576     0.32795     0.11844
H      2.68105     0.27008     1.71794
N     -1.41504    -3.18740     0.66494
H     -0.43603    -3.08663     0.40533
H     -1.53448    -2.73406     1.56241
H     -1.61483    -4.17008     0.79683
N     -2.51642    -0.08687     0.64370
H     -3.48286    -0.13191     0.93761
H     -2.50301     0.43846    -0.22789
H     -2.22687    -1.03574     0.42000
N     -0.03359     1.05837     2.12555
H     -0.92351     0.80674     1.69243
H      0.58015     0.27850     1.92276
H     -0.17985     1.08220     3.12654
N     -0.28380    -1.11886    -1.84354
H     -0.35817    -0.41992    -1.11222
H     -1.03255    -1.77851    -1.68380
H      0.57812    -1.61725    -1.67639
N      1.67161    -3.11485     0.41473
H      1.98079    -2.15434     0.57586
H      1.52359    -3.54003     1.32246
H      2.42930    -3.62135    -0.02609
N      1.86259     1.56197    -1.24281
H      1.28481     1.14393    -1.96200
H      1.33926     2.33105    -0.82823
H      2.66758     1.95901    -1.71017
