 36
-509.429122050821
N     -0.57951     2.10744    -2.12056
H     -0.89252     1.13178    -2.00459
H     -1.36218     2.70073    -1.86197
H     -0.43818     2.26447    -3.11427
N      2.12092     2.94226    -0.80910
H      1.29688     2.56893    -1.28041
H      1.87498     3.87887    -0.51124
H      2.85140     3.04505    -1.50261
N      1.75361     1.28136     2.32400
H      1.70894     1.83221     1.47207
H      2.48007     1.68573     2.89871
H      2.08478     0.37451     2.02284
N     -0.17868    -3.36278    -1.14277
H     -1.16324    -3.22282    -0.95490
H     -0.07858    -4.29673    -1.51779
H      0.27627    -3.34673    -0.23827
N     -2.29153    -1.41971     0.89266
H     -2.05783    -0.44939     1.09511
H     -3.16714    -1.62218     1.35570
H     -1.57012    -1.98629     1.32663
N      0.85380    -2.19665     1.94220
H      1.11877    -1.68192     1.09695
H      0.61268    -1.48318     2.62102
H      1.67528    -2.66751     2.30148
N      1.43685    -0.51305    -0.48491
H      1.51697    -1.15980    -1.25711
H      0.51883    -0.09248    -0.54240
H      2.11663     0.22497    -0.60448
N     -1.38589     1.80084     1.43002
H     -1.90253     2.59882     1.76827
H     -0.60032     1.66911     2.05768
H     -0.98568     2.05430     0.53598
N     -1.57318    -0.59193    -1.84073
H     -2.34553    -0.59972    -2.50081
H     -0.92326    -1.30811    -2.15475
H     -1.92248    -0.91121    -0.92993
