 28
-396.2179812730776
N      1.17527    -0.28968    -2.82953
H      0.35806    -0.81759    -2.54443
H      1.72188    -0.90012    -3.42408
H      1.70725    -0.11159    -1.98228
N      2.19193     0.49124    -0.01844
H      2.03722     0.11756     0.90873
H      3.05480     1.01781     0.01236
H      1.43746     1.14489    -0.18461
N      0.62785    -2.41361     0.74559
H      0.51657    -1.83055     1.56963
H      1.20430    -3.20136     1.00407
H      1.15627    -1.85633     0.08310
N     -1.36373     1.31779    -1.50599
H     -2.06997     1.90004    -1.93868
H     -0.63323     1.15491    -2.19335
H     -1.79679     0.41997    -1.30001
N     -2.40598    -1.80127    -0.59773
H     -2.69799    -2.58653    -1.16520
H     -1.51088    -2.04347    -0.18259
H     -3.06524    -1.72298     0.16625
N     -0.46821     2.47345     1.03628
H     -1.30146     2.82541     1.49790
H      0.07724     3.28979     0.77721
H     -0.78073     2.02734     0.16428
N      0.41634     0.14445     3.06385
H      0.99647     0.50752     3.81041
H      0.22607     0.91077     2.41902
H     -0.47463    -0.10262     3.48003
