 28
-396.22019387493197
N      2.45274     1.08038     0.12751
H      1.79971     1.58148    -0.46183
H      2.06168     1.09984     1.05961
H      3.30517     1.62196     0.14742
N      1.06495    -0.55147    -2.42028
H      1.68666    -0.44189    -1.62384
H      1.62540    -0.86610    -3.20117
H      0.71567     0.37411    -2.64457
N     -0.71186    -2.91518    -1.62922
H     -0.02504    -3.60756    -1.35382
H     -1.15169    -3.26025    -2.47419
H     -0.19111    -2.07854    -1.88283
N     -0.72718     2.02087    -1.40859
H     -0.83378     1.02214    -1.28268
H     -0.75671     2.42407    -0.47631
H     -1.54353     2.34582    -1.90944
N     -2.42268    -1.79775     1.09999
H     -1.93394    -2.11143     0.26582
H     -2.96177    -2.58120     1.44459
H     -3.08099    -1.08946     0.80118
N     -0.34192     2.79229     1.86669
H     -0.30124     1.81787     2.15027
H      0.60212     3.14855     1.94376
H     -0.91087     3.28155     2.54363
N      0.49599    -0.48933     2.35473
H      0.89498    -0.98945     3.13629
H     -0.40832    -0.90415     2.15208
H      1.07107    -0.68361     1.54465
