 28
-396.2183080111039
N      2.18214     0.73548     0.18190
H      3.18735     0.82897     0.14819
H      1.90746     0.88105     1.14587
H      1.97432    -0.23777    -0.02240
N     -1.00419     1.90372    -0.37481
H     -1.17896     1.22519    -1.10731
H     -1.29122     2.79980    -0.74396
H      0.00725     1.92143    -0.29012
N     -1.77087    -1.80386    -1.69388
H     -2.77536    -1.69676    -1.70903
H     -1.46038    -1.52612    -0.77163
H     -1.38605    -1.12463    -2.34175
N      0.19741     2.35696     2.97297
H     -0.38327     2.51871     3.78596
H      0.79578     3.16806     2.88313
H     -0.42245     2.36740     2.17171
N      1.02669    -2.55283    -0.20283
H      0.27971    -2.85650    -0.81688
H      1.60208    -3.35581     0.00373
H      0.57923    -2.27205     0.66488
N      0.60479     0.06040    -2.85359
H      1.14185     0.67555    -2.25732
H      0.74969    -0.86911    -2.48179
H      1.02959     0.09020    -3.76886
N     -1.00633    -0.77660     1.91991
H     -0.51044    -0.35612     2.69281
H     -1.23663    -0.01593     1.29156
H     -1.87490    -1.13563     2.28836
