 24
-339.6073457281869
N      0.50959    -2.62456     1.53168
H      1.08859    -3.29758     2.01392
H      0.34375    -2.97592     0.59881
H      1.05804    -1.78120     1.42677
N      0.20339     0.64177     1.53137
H     -0.33862     1.15425     0.84190
H     -0.29715    -0.21791     1.71725
H      0.17926     1.18472     2.38396
N      1.81428    -1.62925    -1.53161
H      2.52214    -0.90716    -1.51030
H      0.98920    -1.23810    -1.10120
H      2.13961    -2.37671    -0.93550
N     -1.48463     2.03698    -1.15504
H     -1.05032     1.57745    -1.94462
H     -2.38523     1.59298    -1.01610
H     -1.64562     2.99951    -1.41476
N     -4.34902     0.23595    -0.27644
H     -5.20036     0.32279    -0.81523
H     -4.05989    -0.73296    -0.32103
H     -4.57678     0.43627     0.68857
N      3.19047     1.24969    -0.17731
H      3.93104     1.51340     0.45844
H      2.89740     2.08660    -0.66539
H      2.39471     0.97053     0.38730
