 24
-339.613644080466
N     -0.32859    -0.80243     1.93588
H     -0.64750    -0.87371     2.89254
H      0.64298    -1.08905     1.93595
H     -0.32210     0.18159     1.70230
N      1.08305     2.10990     0.09365
H      1.30997     1.94093    -0.87855
H      0.06935     2.15072     0.12829
H      1.41951     3.03480     0.32406
N      0.38028    -0.27484    -2.24910
H      1.09677    -0.78931    -2.74233
H      0.69503    -0.19189    -1.28868
H     -0.43333    -0.87724    -2.20628
N     -2.11985     1.55025    -0.79916
H     -2.91251     2.13166    -1.03215
H     -1.57773     1.43076    -1.64616
H     -2.47895     0.62935    -0.58288
N     -2.23921    -2.19482    -0.51903
H     -3.18830    -2.32845    -0.19321
H     -1.87838    -3.11494    -0.73982
H     -1.69570    -1.85101     0.27005
N      3.07030    -0.23897     1.76334
H      2.51202     0.46941     1.29623
H      3.52569     0.21505     2.54380
H      3.79153    -0.52136     1.11255
