 36
-509.42922079619007
N     -1.86061     1.75190    -2.60461
H     -1.29526     2.04591    -1.82120
H     -2.74477     2.23782    -2.54153
H     -2.03867     0.76253    -2.46195
N      0.74543    -1.42889     1.95087
H     -0.09130    -0.89719     2.16467
H      0.85045    -2.12078     2.68074
H      1.50606    -0.76894     2.06078
N      3.30113    -0.42635    -0.16352
H      2.97722     0.32237     0.44420
H      3.02932    -1.29786     0.26836
H      4.31046    -0.41018    -0.19425
N      1.60955     1.74335     1.23138
H      1.22056     1.58162     0.30356
H      0.86004     1.68949     1.90846
H      1.96298     2.69087     1.25798
N     -1.21953     1.43197     3.70017
H     -1.69863     1.12805     2.85779
H     -1.60245     0.91200     4.47987
H     -1.45243     2.40555     3.84665
N      0.90498     0.84503    -1.57566
H      0.85465     1.37869    -2.43331
H      0.33255     0.02278    -1.73584
H      1.85705     0.52691    -1.41893
N     -2.06486    -1.70625    -2.43273
H     -1.32472    -2.05439    -1.82834
H     -2.90478    -2.22727    -2.21743
H     -1.80184    -1.95027    -3.37992
N     -1.70482     0.35502     0.66723
H     -1.04306     0.99104     0.24164
H     -2.54418     0.43048     0.10894
H     -1.33217    -0.56877     0.48806
N      0.54721    -2.41928    -0.82179
H      1.27353    -1.94801    -1.35052
H      0.63371    -2.08727     0.14378
H      0.77700    -3.40703    -0.84175
