 24
-339.6074314643038
N     -0.16027    -0.48886     0.48971
H     -0.07379    -1.30351    -0.10750
H     -1.12388    -0.38601     0.77996
H      0.09148     0.33429    -0.04242
N      2.00807     3.69913    -0.90639
H      2.00966     4.57324    -0.39724
H      2.13569     2.95076    -0.23079
H      2.81448     3.69946    -1.51721
N     -0.45290    -3.17604    -1.47730
H     -1.01754    -3.70643    -0.82539
H     -1.05407    -2.91067    -2.24973
H      0.25388    -3.80060    -1.84206
N     -1.92164    -0.43972     3.21619
H     -1.88533     0.38847     3.79710
H     -2.16155    -1.22285     3.81013
H     -0.98385    -0.60036     2.87029
N     -2.10275    -0.85955    -3.04310
H     -1.68462    -0.16481    -3.64853
H     -3.03187    -0.53856    -2.80294
H     -1.56501    -0.85292    -2.18568
N      2.40141     1.17733     1.30580
H      2.45757     1.53659     2.25139
H      1.65135     0.49474     1.28819
H      3.26247     0.67442     1.12726
