 28
-396.21593705651577
N      3.06966     0.47022    -1.44904
H      2.97336    -0.51888    -1.26359
H      2.15514     0.77040    -1.77069
H      3.70868     0.56678    -2.22588
N      0.87776    -0.48073     0.89640
H      1.04521    -1.36634     0.43511
H      0.30720     0.08011     0.27288
H      1.77232    -0.01018     0.95933
N      0.97476    -2.28878    -2.10024
H      0.22076    -2.92934    -2.30033
H      0.62935    -1.35912    -2.30681
H      1.69341    -2.47756    -2.78559
N     -2.28242     1.45487     2.04516
H     -1.75254     0.97732     2.77352
H     -1.91997     2.39997     1.98318
H     -3.24088     1.52821     2.36627
N     -2.13156    -0.13964    -0.48643
H     -3.07803    -0.44136    -0.69207
H     -1.61177    -0.97753    -0.24182
H     -2.17273     0.41580     0.37566
N     -0.20266     1.28879    -2.57710
H     -0.06838     2.26432    -2.33215
H     -0.56306     1.27438    -3.52270
H     -0.93550     0.93740    -1.96413
N     -0.28755    -0.22072     3.78063
H      0.49894     0.07076     4.34868
H     -0.55424    -1.14838     4.08947
H      0.05479    -0.31564     2.82561
