 36
-509.4299848508864
N     -0.48920     3.09926    -1.97050
H     -0.15725     2.23123    -2.37858
H     -1.42410     3.25229    -2.32371
H      0.09726     3.83732    -2.33752
N      0.07399     2.12201     1.26426
H      0.73395     1.35542     1.25876
H     -0.07656     2.36777     0.29053
H      0.52837     2.91127     1.70185
N      3.36345     0.18365    -1.53975
H      3.51009     1.09634    -1.12298
H      2.75490    -0.33491    -0.90333
H      4.26422    -0.27745    -1.56335
N      0.54684    -0.75769     2.96590
H     -0.04021     0.06781     2.96523
H     -0.03727    -1.52206     2.63162
H      0.77231    -0.95669     3.93209
N     -2.92004     0.59891     1.67425
H     -2.06515     1.11827     1.49427
H     -3.60085     0.92385     1.00051
H     -3.25198     0.88981     2.58414
N     -1.73666    -2.62178     1.76457
H     -2.31355    -3.34582     2.16750
H     -2.20628    -1.73324     1.91557
H     -1.70319    -2.76864     0.76233
N      0.74296     0.20918    -3.39077
H      1.62602     0.24274    -2.88057
H      0.39866    -0.73894    -3.29749
H      0.96011     0.33443    -4.37252
N      1.69189    -1.49543     0.30016
H      0.81274    -1.96295     0.10630
H      2.38720    -2.23253     0.34225
H      1.59878    -1.13404     1.24836
N     -1.32373    -1.33634    -1.21573
H     -1.85733    -0.91690    -0.46695
H     -0.42145    -0.88028    -1.17405
H     -1.73988    -1.01214    -2.07701
