 24
-339.60353258406957
N      0.82358    -4.06404     2.85000
H      0.43992    -3.64979     3.68924
H      0.16943    -4.76968     2.53611
H      1.68046    -4.53584     3.10983
N      0.33960     1.78305    -3.00402
H      1.25603     1.74409    -3.43164
H     -0.17174     0.95091    -3.29303
H     -0.13301     2.57679    -3.42243
N     -1.38359    -0.84526    -3.36080
H     -2.39442    -0.85665    -3.42589
H     -1.05666    -1.77163    -3.60773
H     -1.14317    -0.70256    -2.37962
N     -0.64865     2.74196    -0.04168
H     -1.51618     3.24907    -0.16452
H      0.06497     3.42324     0.18728
H     -0.39674     2.35508    -0.94948
N     -0.20227    -0.44536    -0.45441
H      0.11612    -1.15303     0.19271
H      0.62557    -0.01553    -0.85057
H     -0.64812     0.28191     0.09583
N      0.89542     0.55985     4.08290
H      0.14303     0.96781     3.54040
H      1.11805    -0.32195     3.63425
H      1.70010     1.16432     3.96343
