 28
-396.2166782531475
N      2.96325     2.54362     0.11371
H      3.59391     2.39409     0.89234
H      2.80403     3.54266     0.05349
H      2.06899     2.11233     0.36580
N      1.79927     0.20837    -1.87025
H      2.40657     0.93337    -1.49198
H      2.19485    -0.07336    -2.75897
H      0.90656     0.64789    -2.06577
N     -0.96581    -2.37182     1.82150
H     -1.22993    -3.33760     1.65054
H     -0.15324    -2.17721     1.22413
H     -0.64806    -2.33578     2.78466
N     -1.96785     1.09215    -1.75501
H     -2.04768     0.51836    -2.58509
H     -2.37468     0.54299    -1.00266
H     -2.57335     1.89150    -1.89464
N     -3.54075    -0.82893     0.62778
H     -2.70914    -1.29374     0.98432
H     -3.97733    -0.36221     1.41321
H     -4.17792    -1.55407     0.32213
N      0.33518     1.38204     0.87166
H     -0.03070     1.87481     1.67651
H     -0.32814     1.52995     0.11815
H      0.29333     0.39423     1.09161
N      1.43814    -1.89519     0.14117
H      2.30632    -1.92106     0.66911
H      1.44537    -2.72737    -0.44129
H      1.50631    -1.09595    -0.50707
