 36
-509.42684807763555
N     -0.74687    -0.20928    -0.70800
H     -0.58446    -0.55244    -1.64624
H      0.12690     0.19547    -0.39306
H     -0.91089    -1.01731    -0.12050
N      1.00900     1.39603    -2.83883
H      1.33166     2.12846    -3.46109
H      0.04616     1.62345    -2.61153
H      1.53043     1.48162    -1.95753
N      0.24680     1.34878     2.02286
H      0.18405     1.84523     2.89906
H     -0.65184     1.41293     1.56662
H      0.38730     0.36857     2.22898
N      2.16888    -1.67324     0.27849
H      2.87070    -2.37789     0.44390
H      1.37851    -1.89012     0.87513
H      1.84063    -1.79814    -0.67097
N     -3.00637     1.60109    -0.03020
H     -2.81661     2.57574    -0.23420
H     -2.21788     1.04513    -0.37148
H     -3.81147     1.33954    -0.58828
N     -2.86704    -0.17472     2.62814
H     -3.74337    -0.36312     3.09944
H     -2.32627     0.42524     3.24028
H     -3.07007     0.38150     1.79966
N      2.55641     1.63042    -0.33042
H      3.38709     2.20466    -0.35172
H      1.99571     1.91977     0.46548
H      2.84546     0.67462    -0.13992
N     -0.62702    -2.34707     2.26365
H     -0.99251    -3.23673     1.94508
H     -1.39932    -1.68472     2.27027
H     -0.34720    -2.48175     3.22673
N      1.27559    -1.70181    -3.40468
H      1.24093    -0.68886    -3.29339
H      2.22118    -1.93327    -3.68043
H      0.67422    -1.93978    -4.18376
