 24
-339.6129535978683
N      2.20829    -0.96318     2.46827
H      1.19614    -1.02083     2.37693
H      2.58539    -1.84699     2.15011
H      2.41668    -0.87606     3.45478
N     -1.14021    -1.44369     2.23228
H     -1.68018    -1.27859     3.07307
H     -1.50804    -0.82449     1.51589
H     -1.35132    -2.38821     1.93292
N     -0.97952    -1.38109    -2.45246
H     -0.22642    -2.05079    -2.53975
H     -1.14162    -1.25540    -1.46057
H     -1.81144    -1.80412    -2.84033
N      0.48696     1.76986    -2.69545
H      0.05186     2.39462    -3.36076
H      0.08530     0.84829    -2.83048
H      0.21589     2.08095    -1.77179
N     -1.81932     0.68496     0.07777
H     -2.42367     1.44189     0.37232
H     -0.88098     0.88151     0.42502
H     -1.77554     0.71374    -0.93208
N      1.35386     1.36784     0.50753
H      1.68410     1.28660    -0.44751
H      1.72543     2.23471     0.87480
H      1.77767     0.61703     1.04545
