 28
-396.2221687088154
N      3.65221     0.45057    -0.29474
H      4.04256     1.30022    -0.67938
H      4.38813    -0.24213    -0.28023
H      2.95127     0.12265    -0.95199
N      1.06453    -0.72353    -2.23030
H      1.12495    -1.16385    -3.13685
H      0.80313    -1.43955    -1.56050
H      0.28452    -0.08042    -2.26102
N     -0.40196    -2.25384     0.46851
H      0.29701    -1.72157     0.97556
H     -1.28314    -1.79675     0.67392
H     -0.43550    -3.17222     0.88439
N     -2.39399     0.16229     1.81215
H     -2.18756     1.07728     1.42942
H     -3.00616     0.29396     2.60428
H     -1.51247    -0.17833     2.17376
N     -2.42682    -0.30496    -1.66418
H     -1.85541    -1.13564    -1.58478
H     -2.90562    -0.22302    -0.77524
H     -3.12564    -0.48536    -2.37003
N     -0.60876     2.25387    -0.27737
H      0.20687     1.66863    -0.14316
H     -1.19729     1.74988    -0.93281
H     -0.29525     3.09183    -0.74532
N      1.16000     0.39639     2.12337
H      0.63375     1.23404     1.90683
H      1.44555     0.45876     3.08978
H      2.00280     0.42362     1.55924
