 36
-509.43130826667795
N     -0.42519     1.86638    -2.40886
H     -0.26311     1.98479    -1.40283
H     -1.03125     2.62150    -2.70893
H      0.46559     2.02962    -2.86685
N      2.72443     2.27536     1.45535
H      3.22342     1.38782     1.45822
H      2.77487     2.66390     2.38869
H      3.21812     2.91240     0.84167
N      1.17718    -1.16975    -0.09380
H      0.57965    -0.35274    -0.13186
H      1.27881    -1.49752    -1.04469
H      0.65929    -1.89001     0.39386
N      3.77604    -0.57348     1.34680
H      3.82935    -1.19689     2.14372
H      2.87425    -0.72853     0.89265
H      4.49469    -0.85926     0.69214
N     -1.89061    -2.71256     0.19845
H     -2.25695    -3.65161     0.26894
H     -1.34554    -2.66208    -0.65817
H     -2.67316    -2.07876     0.06244
N     -3.14149     0.09172    -0.40212
H     -2.73471     0.08486     0.52796
H     -4.00534     0.60990    -0.35133
H     -2.50839     0.63154    -0.97779
N     -1.18344    -0.55375     2.11777
H     -0.21130    -0.28707     2.03438
H     -1.32986    -1.36925     1.51768
H     -1.32960    -0.81992     3.08179
N     -0.11240     2.15441     0.54811
H      0.85934     2.09606     0.88156
H     -0.43026     3.09612     0.75780
H     -0.69984     1.53739     1.10754
N     -1.05410    -1.53246    -2.76509
H     -2.01819    -1.50146    -2.45721
H     -0.70994    -0.58226    -2.66676
H     -1.06290    -1.75382    -3.75058
