 36
-509.42661273511834
N     -1.53445     0.87335    -1.26845
H     -0.62207     0.59645    -1.64419
H     -1.74586     0.22992    -0.51215
H     -2.23164     0.70459    -1.98548
N      1.14835     2.02904     0.42065
H      0.31668     1.94452     0.98716
H      1.63209     2.86651     0.70913
H      0.81561     2.16653    -0.52247
N      1.35891     0.19130    -2.18585
H      1.53059    -0.81690    -2.26734
H      1.83725     0.64128    -2.95870
H      1.82577     0.49712    -1.33613
N     -1.79635     2.05255     2.63206
H     -2.57609     2.27013     3.24245
H     -0.95741     2.27983     3.15481
H     -1.84855     2.68452     1.83218
N     -2.32591    -0.81991     2.10591
H     -2.12781     0.18094     2.19543
H     -3.33076    -0.92835     2.02690
H     -2.06851    -1.23821     2.99430
N     -1.77737     3.58399    -0.06622
H     -2.51819     4.08248    -0.54437
H     -0.91962     4.10263    -0.22361
H     -1.66486     2.66736    -0.52037
N      0.36754    -1.65749     0.30141
H      0.07722    -1.67637    -0.66808
H     -0.47021    -1.71867     0.87085
H      0.76440    -0.73996     0.46437
N      2.48064    -3.76913     0.41545
H      1.75408    -3.04896     0.45128
H      2.11291    -4.59050     0.88046
H      3.25653    -3.43284     0.97359
N      1.97633    -2.70482    -2.51264
H      2.17409    -3.13211    -1.60850
H      1.41548    -3.35886    -3.04508
H      2.86376    -2.62880    -2.99638
