 36
-509.4301294961312
N     -0.57384     1.74780     0.07070
H     -0.09544     1.48867    -0.78506
H     -1.32770     1.07261     0.20415
H     -1.01650     2.64055    -0.11585
N      0.83007    -1.36741     0.04031
H      0.47767    -0.50825     0.44155
H      0.37019    -1.47037    -0.85283
H      0.53277    -2.11376     0.64954
N      2.28852     0.73908    -1.40623
H      1.99985    -0.09327    -0.89126
H      3.28255     0.66237    -1.58464
H      2.17026     1.51851    -0.76968
N      1.36991    -0.88323     3.11059
H      2.00721    -1.07585     3.87336
H      1.89015    -0.99994     2.24792
H      1.12349     0.10501     3.16084
N     -2.49351    -0.59369     0.01847
H     -3.45966    -0.86746    -0.10225
H     -2.06414    -0.62685    -0.90413
H     -2.04608    -1.31914     0.57318
N     -1.33218    -2.16274     2.69182
H     -1.59977    -2.75744     3.46661
H     -0.40904    -1.77487     2.88964
H     -1.97035    -1.37588     2.69937
N      0.80498     0.92682    -4.12662
H      1.30375     0.86711    -3.23776
H      1.41654     0.54793    -4.84030
H      0.66279     1.90850    -4.33382
N      0.46647     2.28535     2.87269
H     -0.37513     2.48991     3.39803
H      1.00376     3.14266     2.83467
H      0.17483     2.05880     1.92219
N     -1.28734    -1.01219    -3.04043
H     -2.16146    -0.95887    -3.55032
H     -0.66523    -0.31427    -3.44073
H     -0.88818    -1.91749    -3.26107
