 36
-509.4307045124283
N      0.45560     1.78133    -0.59168
H     -0.40162     1.26089    -0.72482
H      1.08161     1.13380    -0.13185
H      0.24413     2.47754     0.10886
N      1.89670     0.77259     3.73973
H      2.32227     1.16326     2.90408
H      1.53010     1.55349     4.26663
H      2.65192     0.37504     4.28280
N     -0.44099    -2.45897    -1.01432
H     -1.24073    -1.83798    -1.02542
H     -0.77481    -3.37409    -1.27448
H     -0.15675    -2.51247    -0.04532
N      3.48145     1.96774     0.87920
H      4.45996     2.22122     0.89504
H      3.42235     1.00337     0.56165
H      3.03389     2.52987     0.16697
N     -0.79754     0.16216    -3.02235
H     -0.72756     0.05590    -4.02734
H     -0.23605     0.96942    -2.77295
H     -0.33482    -0.64667    -2.61421
N     -3.04857    -0.05657     0.23583
H     -3.77000    -0.65428     0.62052
H     -3.08202     0.79901     0.77732
H     -3.36231     0.19185    -0.69965
N     -3.76741     0.66204    -2.81923
H     -2.76959     0.45075    -2.80224
H     -4.20095     0.03323    -3.48395
H     -3.86237     1.60073    -3.18665
N     -0.23408    -1.57735     2.38094
H      0.23248    -0.82947     2.88461
H     -0.54521    -2.25185     3.06465
H     -1.06071    -1.17070     1.96248
N      2.54085    -1.20824     0.31086
H      1.95817    -1.39380    -0.49569
H      3.24339    -1.93331     0.33528
H      1.94270    -1.34212     1.11941
