 24
-339.6100842492736
N     -0.86389    -2.59556     0.59573
H     -0.32491    -2.11221    -0.11543
H     -0.30417    -2.56086     1.43942
H     -0.92301    -3.56674     0.32027
N      1.82369     3.15408     0.28668
H      2.81942     3.32919     0.26483
H      1.40516     3.85859     0.88010
H      1.68927     2.25922     0.74934
N      0.13713     1.72898    -2.37193
H      0.20868     2.21913    -3.25293
H     -0.83352     1.76355    -2.08738
H      0.65413     2.27052    -1.68599
N      1.42038    -1.37489    -1.68427
H      1.13910    -0.41450    -1.86269
H      2.41809    -1.42426    -1.83961
H      0.98378    -1.93654    -2.40592
N     -3.64110    -0.87051     1.42047
H     -4.12537    -0.51747     0.60479
H     -2.83419    -1.39392     1.09234
H     -4.26127    -1.52850     1.87537
N      1.18486     0.06502     1.68242
H      1.43629    -0.50860     0.89002
H      0.17872     0.00872     1.76230
H      1.58438    -0.35104     2.51065
