 28
-396.2191037436968
N      1.19732    -0.32294     1.91833
H      0.72646     0.56072     2.08398
H      1.72012    -0.55690     2.75080
H      0.47439    -1.02817     1.80498
N     -0.85545     2.28109     1.32540
H     -1.44073     2.94749     1.80795
H     -0.38862     2.77489     0.57348
H     -1.47350     1.61355     0.87350
N     -0.10866    -1.81659    -1.48997
H     -0.29291    -2.51567    -2.19788
H      0.89859    -1.69773    -1.42659
H     -0.41639    -2.21764    -0.61074
N     -2.07352     0.33539    -1.19184
H     -1.36538    -0.38674    -1.37239
H     -2.75858     0.29939    -1.93540
H     -1.60493     1.22875    -1.27067
N     -1.85540    -1.51300     1.43735
H     -2.17209    -1.01198     0.61023
H     -2.63050    -2.05373     1.79716
H     -1.64181    -0.80337     2.12726
N      0.87875     1.84429    -1.29976
H      0.62154     1.00396    -1.80125
H      1.74536     2.17402    -1.70112
H      1.07901     1.55007    -0.35279
N      2.77669    -0.90252    -0.71347
H      3.59938    -1.34699    -0.32504
H      2.17441    -0.64965     0.07189
H      3.07787    -0.03801    -1.14561
