 36
-509.4305917655759
N     -1.57295    -2.28296     1.42818
H     -0.72655    -2.79859     1.62104
H     -1.27047    -1.38166     1.08051
H     -2.05194    -2.11752     2.30307
N      2.53782     1.43353    -0.61596
H      2.50206     0.65981     0.03636
H      3.33860     1.99471    -0.35536
H      1.70557     1.99530    -0.45343
N     -0.46844     0.88479    -2.30414
H      0.34788     0.85486    -2.90947
H     -1.20483     1.34195    -2.82923
H     -0.79027    -0.06550    -2.13671
N      0.63112     0.21421     2.44935
H      0.70974     1.05223     1.88453
H      1.36086     0.24842     3.14882
H      0.83545    -0.57286     1.84224
N     -0.48529     2.33804     0.22145
H     -1.06445     3.16491     0.15104
H     -0.96551     1.70992     0.85290
H     -0.46742     1.86390    -0.69112
N      1.18437    -1.71326    -0.28847
H      0.29784    -2.10200    -0.58094
H      1.29959    -0.86892    -0.83876
H      1.89709    -2.35573    -0.60184
N      2.53423     1.31375    -3.62027
H      2.52608     1.30141    -2.59948
H      3.22959     0.64469    -3.92699
H      2.86056     2.22998    -3.90155
N     -2.11226    -0.32792     4.20698
H     -1.75480    -0.57569     5.12119
H     -2.68347     0.50025     4.31880
H     -1.30878    -0.06981     3.64031
N     -2.25889    -1.87521    -1.52168
H     -2.38966    -2.66874    -2.13630
H     -2.24242    -2.21711    -0.56615
H     -3.08973    -1.30077    -1.60764
