 24
-339.6110025775313
N      0.92499    -2.36613     1.77138
H      0.05975    -1.98675     1.40674
H      0.80829    -2.46330     2.77224
H      1.62136    -1.64467     1.60845
N      0.59728     2.49277     0.94691
H      0.77162     3.41559     0.57195
H     -0.24066     2.14734     0.49166
H      0.36317     2.60683     1.92468
N      0.52248    -1.83806    -1.33982
H      0.73215    -2.55737    -0.65547
H      0.91235    -2.13634    -2.22585
H      1.04840    -1.01987    -1.04719
N     -2.66319     1.98021    -0.17325
H     -3.05040     2.60555    -0.87002
H     -2.55924     1.07025    -0.61775
H     -3.36445     1.87712     0.55113
N     -2.34446    -0.84834    -1.69162
H     -1.42893    -1.24370    -1.48371
H     -3.02987    -1.59172    -1.60650
H     -2.32212    -0.58123    -2.67035
N      3.06842     0.19999     0.75102
H      3.64058     0.30676     1.57955
H      3.67238     0.36891    -0.04281
H      2.37465     0.94288     0.76685
