 36
-509.4311298855758
N     -3.34238     0.36219     0.29627
H     -3.42054     0.24513     1.30211
H     -3.13572    -0.54084    -0.10993
H     -4.24679     0.64781    -0.05349
N      2.69796    -0.85198     1.37344
H      3.52864    -0.69918     1.92697
H      2.80859    -1.74405     0.90892
H      2.71013    -0.16574     0.62711
N      2.52274     1.20098    -1.56899
H      3.30608     1.75711    -1.87540
H      1.92975     1.03009    -2.37134
H      1.96276     1.78485    -0.96147
N     -2.88358     0.39139     3.42539
H     -2.68316    -0.36988     4.06214
H     -2.00915     0.60613     2.94504
H     -3.12551     1.19991     3.98505
N     -0.08072     0.96768     2.34460
H      0.27079     1.59015     3.06173
H     -0.01711     1.47308     1.46295
H      0.57709     0.19609     2.27898
N     -0.64078    -1.58970    -0.19664
H      0.31392    -1.67616     0.13266
H     -1.15523    -2.34920     0.22932
H     -0.99748    -0.74555     0.23676
N     -0.04142    -0.30688    -3.34785
H     -0.32391    -0.70965    -2.46078
H     -0.85824    -0.29389    -3.94114
H      0.61501    -0.96053    -3.75484
N     -0.67391     2.29083    -0.69594
H     -1.48195     1.90130    -0.21834
H     -0.93867     3.20714    -1.02574
H     -0.53815     1.71435    -1.51685
N      2.21371    -2.40354    -1.60661
H      1.20979    -2.46747    -1.69473
H      2.46544    -1.44189    -1.79824
H      2.62577    -2.98231    -2.32272
