 36
-509.42569907402174
N      2.00064     1.74118     1.61017
H      2.88759     2.22008     1.69152
H      2.16376     0.77306     1.87670
H      1.37232     2.15268     2.29731
N     -0.49287     2.99798     3.52883
H     -0.77889     2.61445     4.42129
H     -0.95864     3.89067     3.42259
H     -0.86492     2.38104     2.81016
N      1.40040    -2.65034    -1.04435
H      0.77135    -2.30930    -1.77746
H      2.34665    -2.61246    -1.41046
H      1.20018    -3.63684    -0.90871
N      1.19596     1.23130    -1.15523
H      1.92504     1.67143    -1.70530
H      1.37803     1.47601    -0.17205
H      1.36236     0.23234    -1.23579
N     -1.18966     1.07086     1.20750
H     -1.08273     1.66168     0.39198
H     -1.95983     0.43670     1.03546
H     -0.34353     0.50962     1.22358
N     -2.39505    -1.64343    -0.46411
H     -2.70943    -1.49714    -1.41228
H     -1.40418    -1.82925    -0.52718
H     -2.83690    -2.48035    -0.11460
N     -0.47713    -1.68604    -3.14770
H     -1.20454    -2.38343    -3.27427
H     -0.94928    -0.79817    -2.93969
H     -0.02545    -1.58901    -4.05086
N     -1.69850     0.91342    -2.40298
H     -2.09527     1.71173    -2.88107
H     -0.76200     1.16789    -2.08606
H     -2.24012     0.76448    -1.56110
N      1.80560    -1.68272     1.90643
H      1.56622    -1.93428     0.95215
H      2.60379    -2.24707     2.16306
H      1.03243    -1.98369     2.48664
