 24
-339.60564239813186
N      0.26465    -1.29924     1.25589
H      0.07251    -0.31935     1.42883
H      0.18795    -1.78757     2.13751
H      1.22836    -1.36715     0.94840
N      0.26298     1.95863     2.23703
H     -0.48140     2.44918     2.71394
H      0.91776     1.65185     2.94611
H      0.74852     2.63512     1.66020
N      1.82730     3.05797    -0.44411
H      1.50366     2.10897    -0.31133
H      1.39541     3.39963    -1.29174
H      2.82509     3.00603    -0.59863
N     -0.67462    -2.56836    -1.67349
H     -1.39142    -1.96771    -2.06137
H     -1.07473    -3.49475    -1.59515
H     -0.49612    -2.23144    -0.72912
N     -3.87930     0.73465    -0.13939
H     -4.38576     0.90102     0.72144
H     -2.99248     0.31793     0.11759
H     -3.67391     1.63774    -0.54845
N      2.48025    -1.83254    -1.38140
H      1.50439    -2.05091    -1.57881
H      2.84248    -1.34796    -2.19434
H      2.96895    -2.71856    -1.33122
