 24
-339.61231471128775
N      1.65153    -0.65392     1.17506
H      0.68450    -0.62365     1.48236
H      1.80934    -1.55725     0.74509
H      2.22552    -0.61708     2.00658
N     -1.70145    -0.34052     2.15734
H     -2.09784     0.29349     2.83993
H     -2.18506    -0.17641     1.27711
H     -1.95444    -1.27406     2.45921
N      0.88009    -2.95000    -1.17481
H      0.16811    -3.61886    -0.91347
H      0.54359    -2.03867    -0.89912
H      0.95613    -2.94655    -2.18309
N     -0.52651     1.88040    -0.27417
H      0.25624     1.85178    -0.92035
H     -0.75760     2.85709    -0.14174
H     -0.19229     1.52606     0.61423
N     -2.89457     0.18273    -0.74519
H     -2.69761    -0.45580    -1.50790
H     -3.68715     0.74552    -1.03120
H     -2.08190     0.80138    -0.64931
N      2.70769     1.56428    -1.19660
H      2.41664     0.90322    -0.48088
H      3.18313     1.02773    -1.91050
H      3.39606     2.17214    -0.77226
