 28
-396.21917356736674
N      2.05194     0.68626     0.51695
H      1.19314     0.32747     0.94852
H      1.99976     1.69646     0.59854
H      2.82986     0.41251     1.10764
N     -1.58387    -1.10444    -1.56865
H     -1.25147    -1.77526    -0.88609
H     -2.31732    -1.55993    -2.09356
H     -0.80546    -0.97800    -2.20479
N     -0.42103    -0.42247     1.65536
H     -0.46448    -1.41500     1.84259
H     -0.66169     0.08031     2.50230
H     -1.14798    -0.21671     0.98132
N     -1.71274     2.41513     2.80596
H     -2.70995     2.45096     2.97639
H     -1.31942     3.28706     3.13655
H     -1.58844     2.39544     1.79652
N      2.00981    -0.70176    -2.64824
H      1.82636     0.06907    -3.27682
H      2.03277    -0.30373    -1.71230
H      2.94618    -1.02722    -2.84924
N     -1.20036     2.08254    -0.55971
H     -0.23265     1.78451    -0.55206
H     -1.70905     1.30555    -0.96675
H     -1.26811     2.85782    -1.20254
N      0.79489    -2.91486    -0.13285
H      1.30723    -3.70737     0.22833
H      1.02004    -2.84151    -1.11749
H      1.19003    -2.08673     0.29410
