 28
-396.2162554157017
N      3.12269    -0.91141     0.11866
H      4.06881    -0.57203     0.22999
H      3.03382    -1.26733    -0.82502
H      2.49668    -0.10971     0.17481
N      0.97736     1.68856     0.05265
H      1.36543     2.50967     0.49692
H      0.48756     2.02358    -0.77009
H      0.25408     1.33586     0.67128
N      0.10244    -1.25795    -1.65562
H      0.47410    -1.63134    -0.79427
H      0.48055    -1.79827    -2.41974
H      0.47122    -0.31935    -1.72681
N     -2.83498     0.01206    -0.62452
H     -2.16197    -0.63089    -1.02790
H     -2.56337     0.11163     0.34537
H     -3.73140    -0.45307    -0.63475
N     -1.05697     0.15135     2.71837
H     -0.42380    -0.56593     2.37156
H     -0.49951     0.79089     3.27420
H     -1.70543    -0.29980     3.35295
N     -1.31323     2.45992    -2.46994
H     -1.89826     1.79075    -1.97270
H     -1.78394     3.35322    -2.40213
H     -1.33360     2.18734    -3.44443
N      0.94537    -2.02167     1.91505
H      1.19411    -2.22877     2.87602
H      0.61818    -2.89537     1.51607
H      1.80471    -1.76398     1.43473
