 40
-566.0359328020663
N     -2.39906    -0.19965    -2.27991
H     -1.52388     0.22802    -2.55305
H     -2.93726     0.52835    -1.82687
H     -2.88708    -0.45107    -3.12966
N     -3.06926     0.28090     1.10820
H     -3.85488     0.27319     1.74492
H     -3.08015     1.16454     0.60754
H     -3.24109    -0.43977     0.41903
N      0.06885     1.90136    -0.88376
H      0.39294     1.10551    -1.43823
H      0.68447     2.68454    -1.07398
H      0.27634     1.64266     0.07540
N      3.86858    -0.58414    -0.06559
H      3.49426    -0.18473     0.79838
H      4.56419    -1.26949     0.20215
H      4.36438     0.16016    -0.54031
N      2.98690     0.87212     2.47279
H      3.20983     1.86039     2.42820
H      1.96747     0.78595     2.50035
H      3.34450     0.53277     3.35901
N      0.10524     0.08723     2.43380
H     -0.78365     0.24604     1.96942
H      0.55830    -0.70483     1.96956
H     -0.11045    -0.19291     3.38315
N      1.34934    -2.25472     0.78334
H      1.65646    -3.12584     1.19492
H      0.58773    -2.47292     0.14404
H      2.13275    -1.89811     0.24225
N     -1.51269    -2.39293    -0.55289
H     -1.43225    -1.95392     0.35782
H     -1.88555    -1.68231    -1.18998
H     -2.18152    -3.14455    -0.45507
N     -2.71027     2.89877    -0.79820
H     -1.76870     2.50389    -0.92919
H     -2.95340     3.42006    -1.63418
H     -2.62941     3.58576    -0.05479
N      1.03554    -0.58216    -2.16190
H      1.46369    -0.89675    -3.01941
H      0.43247    -1.32721    -1.83526
H      1.78128    -0.49600    -1.47933
