 24
-339.61110308686676
N      2.19594    -1.72323     2.74421
H      1.24837    -1.51615     2.42628
H      2.50892    -2.53925     2.23267
H      2.13196    -1.98143     3.72112
N     -0.86588    -1.37615     1.93738
H     -1.28622    -2.23623     1.60061
H     -1.40148    -1.09122     2.75086
H     -1.01623    -0.66756     1.21826
N     -1.50320    -1.22133    -2.77137
H     -2.30603    -1.81817    -2.91820
H     -0.67377    -1.78434    -2.90498
H     -1.50723    -0.94716    -1.79638
N     -1.04188     2.09227    -3.34292
H     -0.18022     2.31954    -3.82116
H     -1.22338     1.10597    -3.50040
H     -1.78706     2.61039    -3.78940
N     -0.93704     0.96874     0.02712
H     -1.44888     1.66621     0.55500
H      0.00123     0.93431     0.41939
H     -0.86594     1.32342    -0.92105
N      2.14866     1.15693     1.46223
H      2.37532     0.25820     1.87768
H      2.90314     1.39724     0.83071
H      2.16425     1.83919     2.21115
