 24
-339.61009237086887
N     -1.87784    -2.79495    -0.60811
H     -2.50954    -3.34113    -1.17631
H     -1.97068    -1.83129    -0.90676
H     -2.23905    -2.80690     0.33730
N     -0.45128     0.37926    -0.85489
H     -0.53126     0.78866    -1.77586
H      0.09784     1.01531    -0.28859
H      0.08308    -0.47553    -0.96205
N      1.42155    -2.92434    -0.85765
H      0.42194    -3.08723    -0.75004
H      1.89906    -3.55819    -0.22799
H      1.66621    -3.19361    -1.80222
N      1.67489     1.66522     1.18357
H      1.86595     0.73722     0.82667
H      2.42916     2.26915     0.88050
H      1.70201     1.60627     2.19248
N     -2.86860    -0.38793     1.56320
H     -2.14048    -0.03936     0.94671
H     -3.66353     0.22550     1.44369
H     -2.52848    -0.26034     2.50700
N      2.32855     4.45764    -0.33367
H      2.28036     5.39922     0.03227
H      2.33067     4.51767    -1.34361
H      1.47574     3.98535    -0.06459
