 24
-339.61074268648173
N      1.90281    -0.52941    -1.27090
H      1.59017    -1.41088    -0.87942
H      2.11028    -0.69947    -2.24509
H      2.78754    -0.33095    -0.82155
N     -1.06346    -1.41056     0.45066
H     -1.83345    -1.46453    -0.20257
H     -1.45831    -1.05910     1.31227
H     -0.46329    -0.67370     0.10381
N      1.32110    -3.69744     0.17005
H      0.45714    -3.23491     0.43996
H      1.06766    -4.54566    -0.31980
H      1.79399    -3.96779     1.02261
N     -1.07492     1.70147    -1.34770
H     -1.60616     2.06018    -2.12782
H     -0.41463     2.41679    -1.07020
H     -0.51890     0.93234    -1.69491
N     -2.81396     1.35794     1.63199
H     -2.30770     1.45750     0.75649
H     -3.79639     1.30783     1.39418
H     -2.67967     2.21748     2.14930
N      1.77353     2.43401     0.18483
H      1.71667     1.54308    -0.30253
H      2.74755     2.63631     0.36945
H      1.31859     2.29078     1.07943
