 24
-339.6096704154063
N     -0.98353    -2.04548     2.74816
H     -0.36665    -1.24058     2.71263
H     -0.40224    -2.86667     2.84595
H     -1.42829    -2.09994     1.84124
N      0.93237     0.82515     2.24351
H      1.57330     0.94604     1.46721
H      0.21594     1.53294     2.13705
H      1.44356     1.04102     3.08949
N     -0.17776     1.58527    -2.35425
H     -0.06239     0.61343    -2.07968
H      0.13779     1.67588    -3.31011
H      0.45582     2.11515    -1.77097
N      0.10946    -1.26595    -0.71323
H      0.28485    -1.03678     0.25654
H     -0.85472    -1.00721    -0.89985
H      0.16621    -2.27155    -0.79087
N     -2.98868     0.07147    -1.39205
H     -3.63054    -0.23556    -2.11011
H     -2.45918     0.84949    -1.77284
H     -3.54133     0.43823    -0.62849
N      3.04940     0.76143    -0.47699
H      2.35735     0.24653    -1.00771
H      3.77720     0.10108    -0.23578
H      3.46658     1.43969    -1.09958
