 36
-509.4285078597701
N     -1.43805     2.39201    -2.26928
H     -1.72431     3.36304    -2.31167
H     -2.28517     1.84049    -2.19370
H     -0.93616     2.24515    -1.38645
N      0.00542     1.87001     0.24646
H     -0.63269     1.50909     0.94261
H      0.39674     2.72782     0.61111
H      0.76738     1.20776     0.17458
N     -1.36861    -0.88210    -1.33548
H     -1.15401    -0.12209    -1.97114
H     -1.87069    -1.57940    -1.87158
H     -0.46777    -1.30183    -1.11308
N      2.46715    -0.13408     1.90602
H      2.34510    -1.09736     2.19036
H      1.68372     0.36313     2.31486
H      3.31137     0.20690     2.34122
N     -0.41533     0.14581     3.53610
H     -0.64382     0.55145     4.43177
H     -1.23375     0.19376     2.93796
H     -0.21869    -0.83622     3.68316
N      1.14877     1.10180    -3.59044
H      0.31523     1.61741    -3.31884
H      1.91265     1.76625    -3.60718
H      1.01313     0.78390    -4.54145
N      1.94536    -1.36209    -1.26581
H      2.70427    -1.85967    -1.70836
H      1.63123    -0.64957    -1.91850
H      2.32737    -0.88208    -0.45808
N      0.09285    -2.49999     1.47227
H      0.08664    -1.48929     1.52975
H      0.77817    -2.73387     0.76421
H     -0.80608    -2.76196     1.09294
N     -2.49692    -0.39030     1.33781
H     -3.49967    -0.28598     1.24641
H     -2.09132    -0.48948     0.39839
H     -2.34125    -1.26280     1.83013
