 16
-226.40133026506658
N      1.80012     0.54469     0.02229
H      2.34575     0.29658     0.83702
H      1.00138    -0.07156     0.00267
H      2.35909     0.33179    -0.79335
N     -0.82772     2.79676     0.02725
H      0.12509     2.44720     0.03240
H     -0.91773     3.39635    -0.78163
H     -0.93388     3.37578     0.84902
N     -1.79317    -0.54734    -0.02823
H     -2.37326    -0.75391     0.77519
H     -1.62669     0.45510    -0.01149
H     -2.35134    -0.73044    -0.85256
N      0.86044    -2.89996    -0.02056
H      1.38503    -2.55825    -0.81516
H     -0.02574    -2.41001    -0.02757
H      1.35582    -2.58766     0.80431
