 24
-339.60832947019856
N      0.26527    -0.57738    -0.26996
H      0.34427    -0.28959    -1.23875
H      0.60214     0.17714     0.31779
H      0.86651    -1.37853    -0.12527
N      0.76602     1.99771     1.96886
H      0.20227     1.77817     2.77966
H      1.71234     2.14411     2.29907
H      0.43700     2.88604     1.61237
N     -0.88485    -0.62672    -3.38253
H     -0.81316    -1.38960    -2.71978
H     -1.69334    -0.08416    -3.09570
H     -1.08565    -1.03067    -4.28749
N     -0.86290    -3.25448     0.84205
H     -1.73447    -3.68001     0.54811
H     -0.88357    -3.20679     1.85413
H     -0.85809    -2.29873     0.50176
N     -3.03196     0.73832    -1.16785
H     -3.85424     0.28009    -0.80036
H     -2.25380     0.48111    -0.57397
H     -3.16330     1.73567    -1.07250
N      4.04733     1.65787     1.98147
H      4.70911     2.22019     1.46449
H      4.54829     0.89471     2.41527
H      3.40852     1.25232     1.31087
