 36
-509.4310123613144
N     -0.06499     1.67925    -2.62652
H      0.64716     1.51621    -1.90383
H      0.41370     1.94259    -3.48037
H     -0.59109     2.50050    -2.34019
N      2.04938     1.44669     3.40027
H      1.98268     1.03167     4.32119
H      2.32866     2.41125     3.52639
H      1.11375     1.43969     3.00358
N      2.25682    -1.18729     1.08831
H      2.99069    -1.82396     1.37073
H      1.37717    -1.69593     1.14565
H      2.22851    -0.44876     1.78664
N     -0.47826     0.67420     1.61806
H     -0.52135    -0.30915     1.85869
H     -1.42577     1.02499     1.67007
H     -0.20100     0.70469     0.64419
N     -3.75839     1.17356     0.66013
H     -3.34005     0.60491    -0.06957
H     -4.54440     0.65364     1.02786
H     -4.12573     2.00333     0.21408
N     -0.60679    -2.60637     0.39056
H     -0.03504    -2.44810    -0.44139
H     -1.00187    -3.53570     0.35401
H     -1.37826    -1.95443     0.32590
N     -2.41990    -0.65679    -1.93520
H     -3.03942    -0.82784    -2.71532
H     -1.87334    -1.49834    -1.80883
H     -1.75901     0.05865    -2.22742
N      1.98242     1.21139    -0.55675
H      2.88088     1.58786    -0.84269
H      2.14263     0.26965    -0.17552
H      1.69639     1.75742     0.25154
N      1.04780    -1.80295    -1.98590
H      0.76790    -0.86890    -2.25629
H      1.91345    -1.69950    -1.47355
H      1.25951    -2.31359    -2.83133
