 24
-339.60988183412917
N      0.51823    -2.34445     1.37213
H      1.42940    -2.12406     1.75338
H      0.32741    -3.31819     1.56233
H      0.59412    -2.25066     0.36644
N      0.78276     1.60931    -0.56878
H      1.02525     0.67369    -0.87255
H      1.62529     2.03042    -0.20194
H      0.14667     1.48751     0.20997
N      0.45045    -0.47244    -3.14969
H     -0.54405    -0.44377    -2.96666
H      0.77045     0.48495    -3.08538
H      0.57852    -0.77327    -4.10523
N     -2.28031     1.36025    -1.98824
H     -1.34560     1.75273    -1.98860
H     -2.82684     1.87351    -2.66653
H     -2.65711     1.56921    -1.07219
N     -1.90696    -0.01242     1.01473
H     -2.03712    -0.17928     0.02268
H     -1.23499    -0.70002     1.34139
H     -2.78740    -0.20581     1.47515
N      2.35992    -0.54768     3.42597
H      1.39617    -0.46441     3.13077
H      2.35521    -0.72283     4.42169
H      2.79644     0.35107     3.27085
