 36
-509.4267840236057
N     -1.02090     2.03677    -1.72730
H     -1.41230     2.96109    -1.84750
H     -0.53019     1.81126    -2.58614
H     -0.31230     2.10635    -1.00497
N      2.61891     2.24002    -0.61987
H      1.97939     1.72121    -0.01799
H      3.50587     1.74987    -0.59644
H      2.77322     3.14838    -0.20065
N      1.19752    -2.41222     0.72000
H      2.18157    -2.46950     0.48179
H      0.88909    -3.36859     0.85627
H      0.69649    -2.05133    -0.09679
N      0.69832    -0.87193     3.86358
H     -0.24766    -0.60150     3.62800
H      1.23907    -0.02131     3.93308
H      1.06708    -1.38013     3.06998
N     -2.21825    -1.08256     2.09301
H     -2.81039    -1.75528     2.56198
H     -1.30888    -1.52194     2.00686
H     -2.56702    -0.97386     1.14764
N     -0.40377    -1.48071    -1.59683
H     -0.09372    -0.64457    -2.08446
H     -1.35063    -1.29799    -1.27756
H     -0.47740    -2.22058    -2.28333
N     -3.12587     0.27361    -0.67884
H     -3.34778     0.71196     0.20765
H     -2.40555     0.84600    -1.13481
H     -3.96909     0.32083    -1.23743
N      0.44964     0.75363     0.90235
H      0.86702    -0.16568     1.01886
H      0.25369     1.09226     1.83401
H     -0.45352     0.60056     0.46773
N      1.59559     0.67085    -3.09341
H      1.83682    -0.24804    -2.74340
H      2.19054     0.84275    -3.89429
H      1.85529     1.33026    -2.36112
