 36
-509.4264645251915
N     -2.87183     1.75687    -1.45862
H     -2.67833     0.80853    -1.77181
H     -3.77623     1.73929    -1.00499
H     -2.96409     2.34284    -2.27819
N     -0.03246     2.22729     0.43684
H     -0.02904     3.12119     0.90740
H     -0.82012     2.24256    -0.20406
H     -0.24521     1.52214     1.13358
N      2.26367     0.31594    -1.25625
H      1.62485     0.98445    -0.82851
H      3.00055     0.85069    -1.69786
H      2.68521    -0.20693    -0.49167
N      2.62633    -1.61403     1.46640
H      1.70230    -2.02298     1.51955
H      3.28988    -2.32768     1.72946
H      2.64470    -0.89582     2.18147
N      1.85174     1.03229     3.42463
H      2.02347     1.63634     4.21531
H      1.90416     1.59969     2.58967
H      0.88984     0.71261     3.48205
N     -2.28504    -1.10150    -2.68351
H     -2.71208    -2.00038    -2.88076
H     -2.52049    -0.50500    -3.46938
H     -1.26330    -1.22445    -2.70700
N      0.64965    -1.38204    -3.05994
H      1.09123    -2.29624    -3.09400
H      1.17082    -0.81080    -2.38039
H      0.81000    -0.95876    -3.96883
N     -1.37987    -0.21087     3.13545
H     -2.26060     0.28815     3.10295
H     -1.51403    -0.98771     3.77040
H     -1.22672    -0.60354     2.20831
N     -0.66127    -1.06316     0.27899
H     -1.15016    -1.82794    -0.16429
H     -0.97188    -0.22701    -0.20034
H      0.31948    -1.16562     0.05329
