 36
-509.4255921703081
N     -4.40623    -0.41532     0.93876
H     -3.75546     0.19535     1.43246
H     -4.72498    -1.10213     1.61246
H     -5.20832     0.15303     0.69296
N      1.80453    -1.08721     1.09458
H      1.94126    -1.85613     1.74173
H      1.65411    -1.49238     0.16003
H      2.68202    -0.57409     1.07129
N      3.92590     1.42238     0.02113
H      4.06684     2.42555     0.00891
H      4.62073     1.03107    -0.60504
H      3.01203     1.23990    -0.40184
N     -2.39835     1.56653     2.61462
H     -2.46283     1.22365     3.56877
H     -1.43362     1.41190     2.29207
H     -2.53826     2.56997     2.67083
N      0.39603     1.35447     1.76542
H      0.74231     1.64872     2.67473
H      0.81852     2.00195     1.10762
H      0.82598     0.43575     1.55111
N     -1.32577    -0.23456    -0.28050
H     -1.33209     0.72057     0.05514
H     -0.87955    -0.78829     0.44287
H     -2.29415    -0.53410    -0.33844
N     -0.63903    -1.08096    -3.18194
H     -0.91433    -0.95984    -2.20830
H     -0.47842    -0.14440    -3.53061
H     -1.43387    -1.45323    -3.68613
N      1.23793     0.93482    -1.46162
H      1.00267     1.73972    -2.03145
H      1.55512     0.21026    -2.09304
H      0.39390     0.57627    -1.00935
N      1.43964    -2.53388    -1.47642
H      0.88485    -2.09595    -2.21085
H      2.35694    -2.74962    -1.85104
H      1.00401    -3.42623    -1.27194
