 24
-339.6027427313647
N      1.24708    -0.82937     2.11769
H      1.51871    -0.91722     3.08682
H      2.05785    -1.04812     1.55488
H      1.02632     0.14484     1.94711
N     -3.04618     3.08496     0.12071
H     -3.55558     3.93605    -0.07916
H     -2.06231     3.32038     0.16330
H     -3.15987     2.46660    -0.67689
N     -3.20125     0.42295    -2.10130
H     -2.65090    -0.23589    -1.56668
H     -2.90398     0.34548    -3.06428
H     -4.16117     0.10919    -2.04850
N     -0.76042     0.87913     0.43374
H     -0.59768    -0.07885     0.71389
H     -0.97883     0.89159    -0.55417
H     -1.58927     1.21668     0.90751
N      1.09228    -1.75948    -1.10522
H      0.97730    -0.75742    -1.05955
H      0.70752    -2.12468    -0.24438
H      2.08544    -1.93542    -1.06834
N      4.39397    -2.00160     0.58292
H      5.01444    -1.32976     0.15361
H      4.50720    -1.91416     1.58358
H      4.71155    -2.92733     0.33169
