 28
-396.2144269542802
N      2.78212    -1.84992     1.07964
H      3.76871    -1.63367     1.17178
H      2.67594    -2.43145     0.24818
H      2.53450    -2.42210     1.87916
N     -2.56606     0.31219    -2.39038
H     -2.32479     0.65583    -1.46506
H     -2.29958     1.03449    -3.04682
H     -3.57513     0.24318    -2.42022
N     -0.56605    -1.91088    -0.76660
H     -0.46196    -1.20685    -0.04463
H     -1.03570    -1.46847    -1.55169
H     -1.21109    -2.60309    -0.40320
N     -1.28029     4.72115     2.19936
H     -0.53674     5.36892     1.97252
H     -1.60973     4.94243     3.13008
H     -0.85613     3.80385     2.25208
N      1.92498    -3.40667    -1.51366
H      2.24758    -3.04836    -2.40557
H      1.63698    -4.36597    -1.66708
H      1.09165    -2.87058    -1.25661
N     -1.69624     1.52573     0.70640
H     -0.71286     1.32822     0.86998
H     -1.83556     2.52540     0.66429
H     -2.22670     1.18116     1.49458
N      1.35813     0.72674     0.59282
H      1.05382     0.70711    -0.37579
H      2.10460     1.41153     0.63547
H      1.77514    -0.18925     0.77882
