 36
-509.42714879715743
N     -4.60019     1.74067     0.80129
H     -5.09145     2.59959     0.58533
H     -4.69742     1.57874     1.79702
H     -3.60894     1.91483     0.62309
N      2.35155    -0.90896     1.09335
H      3.05782    -1.16021     0.40589
H      2.57090    -1.44996     1.92127
H      1.46656    -1.25711     0.73551
N      3.17619     2.02752     0.63951
H      2.89088     1.05779     0.76621
H      3.21495     2.19998    -0.35843
H      4.12240     2.11347     0.99055
N     -0.62511    -0.73336    -0.42975
H     -0.26097    -0.01263     0.18047
H     -0.14749    -0.62343    -1.31614
H     -1.62253    -0.57654    -0.56598
N      0.50641     1.96531     2.04829
H      1.28785     2.42853     1.59177
H      0.30611     2.46798     2.90473
H      0.88169     1.06557     2.32245
N     -3.67562    -0.63957    -0.99659
H     -4.13677     0.05392    -0.40864
H     -4.03094    -0.52012    -1.93888
H     -3.99200    -1.55167    -0.68218
N      0.49875    -3.41293    -1.37740
H     -0.03691    -2.67737    -0.92484
H      0.00711    -3.64563    -2.23162
H      0.43923    -4.23169    -0.78375
N     -1.68499     2.50714     0.11021
H     -1.55710     3.49243    -0.09890
H     -0.94474     2.24828     0.77200
H     -1.48803     2.01097    -0.75458
N      3.74269    -2.32564    -1.65312
H      2.78943    -2.66205    -1.54981
H      3.77785    -1.80942    -2.52202
H      4.33560    -3.13808    -1.75974
