 12
-169.79738875216808
N     -0.29435     1.27995     0.01606
H     -0.33583     1.91603    -0.76805
H     -0.34625     1.83295     0.86062
H      0.61601     0.83503    -0.00006
N      2.91196    -0.26496     0.00519
H      3.23453    -0.42165     0.95061
H      2.84927    -1.16872    -0.44382
H      3.63056     0.26015    -0.47463
N     -2.77672    -0.98700    -0.00461
H     -2.85128    -1.36640    -0.94068
H     -2.00721    -0.32125    -0.00764
H     -2.51365    -1.74959     0.60778
