 28
-396.21843314247036
N      0.27253     3.35869    -0.63480
H      0.35086     2.87754     0.25640
H      1.20529     3.38132    -1.02957
H      0.00564     4.31555    -0.44112
N      0.62403    -1.44057    -1.79213
H      1.23011    -1.06867    -1.07015
H      1.21298    -1.94685    -2.43886
H      0.25170    -0.63834    -2.28972
N     -0.44978    -3.10512     1.03903
H     -0.88190    -4.00703     1.17457
H     -1.10324    -2.39666     1.34697
H     -0.33922    -2.96025     0.04086
N     -1.26169     1.17896    -2.75937
H     -2.17632     0.93623    -2.40078
H     -0.86656     1.84234    -2.09750
H     -1.39795     1.66268    -3.63644
N     -1.90905     0.00014     0.42158
H     -2.89578     0.04688     0.21016
H     -1.55888     0.94863     0.45388
H     -1.45394    -0.42788    -0.37589
N      0.52083     1.47276     2.02833
H      1.22935     0.84629     1.65696
H      0.81262     1.75520     2.95409
H     -0.31101     0.90330     2.12709
N      2.34843    -1.28914     1.58376
H      1.59943    -1.96505     1.45288
H      3.22410    -1.76912     1.42137
H      2.32788    -1.04195     2.56616
