 24
-339.6092033685526
N      2.51010    -0.54299    -0.67160
H      3.36315    -0.21563    -1.10066
H      2.00982     0.27158    -0.33860
H      2.76114    -1.07949     0.15097
N     -1.99758     3.26066     1.20805
H     -1.53032     2.61395     1.82807
H     -2.22966     2.74464     0.37183
H     -1.31099     3.95286     0.94389
N     -0.08807    -1.91914    -2.29786
H      0.13222    -2.02521    -3.27957
H      0.77357    -1.65339    -1.82930
H     -0.34280    -2.83487    -1.95168
N     -1.98925     0.95295    -1.72005
H     -2.95367     0.75007    -1.94392
H     -1.63840     1.56651    -2.44330
H     -1.47559     0.08255    -1.81268
N     -0.34147     0.03373     1.21026
H     -1.07818    -0.47817     1.68318
H     -0.81872     0.64150     0.55503
H      0.15429    -0.64759     0.64706
N      1.99753    -1.81013     2.37475
H      1.42847    -2.62803     2.55252
H      2.62647    -1.70798     3.16124
H      1.37130    -1.01172     2.38170
