 24
-339.6096889738028
N      0.69443    -1.64049    -1.35411
H     -0.07243    -0.99055    -1.46421
H      0.34041    -2.55873    -1.58612
H      0.92830    -1.65257    -0.36756
N     -2.50572     1.96583     3.54983
H     -2.38807     1.41250     2.70597
H     -3.43876     1.79072     3.90009
H     -2.46543     2.93999     3.27874
N      0.88060    -1.24934     2.21487
H      0.18791    -0.54060     2.42070
H      0.72903    -1.99932     2.87478
H      1.77772    -0.83627     2.43091
N     -2.00150     0.02137     0.80357
H     -2.87152    -0.41978     0.53766
H     -1.71816     0.60913     0.02790
H     -1.30978    -0.71204     0.88103
N     -0.49821     1.50487    -2.12713
H     -0.19446     2.43845    -1.88648
H      0.34496     0.96368    -2.27109
H     -0.96083     1.56161    -3.02357
N      3.54408    -1.00830    -3.10694
H      2.71469    -1.23405    -2.56549
H      3.67689    -1.75002    -3.78235
H      4.33301    -1.03527    -2.47386
