 28
-396.217769156118
N      0.99316    -0.92781    -2.21390
H      1.08599    -0.57682    -3.15744
H      0.12194    -1.44310    -2.15721
H      0.87187    -0.12121    -1.61482
N      1.74822     2.37617     1.39122
H      2.73801     2.54679     1.25381
H      1.24123     2.97455     0.74337
H      1.52414     2.67955     2.33138
N     -0.74686    -2.55999     1.81193
H     -0.02166    -1.86079     1.64105
H     -1.12303    -2.39253     2.73754
H     -0.27236    -3.45492     1.85139
N     -1.37843     0.74628    -0.21215
H     -1.58908     0.08251    -0.94726
H     -0.89817     0.23096     0.51699
H     -2.26959     1.03283     0.17391
N     -1.89410    -2.60706    -1.35162
H     -1.71430    -2.46642    -0.36031
H     -2.88597    -2.77289    -1.45990
H     -1.42158    -3.46917    -1.59813
N     -0.17937     3.57535    -0.71441
H     -0.99825     4.15315    -0.57106
H      0.09320     3.67197    -1.68564
H     -0.45935     2.60501    -0.57141
N      1.47764    -0.62033     1.11527
H      2.24377    -0.90397     1.71596
H      1.71408    -0.93555     0.17797
H      1.46327     0.40329     1.11968
