 36
-509.43041103251846
N     -1.62097     1.81970    -2.66108
H     -2.23045     1.74453    -1.83982
H     -2.03830     2.47146    -3.31584
H     -1.64405     0.91024    -3.11248
N      0.11276     2.83393     0.17642
H      0.63328     3.69214     0.29785
H      0.78294     2.11311    -0.06668
H     -0.48323     2.95491    -0.63219
N      3.19387     0.12083     0.69666
H      3.99546     0.72647     0.79119
H      2.51700     0.40777     1.39355
H      2.77580     0.30780    -0.20868
N      3.19391    -3.30891     0.25904
H      3.68966    -3.45045    -0.61172
H      3.23275    -2.31242     0.45618
H      3.72797    -3.76753     0.98590
N      0.05608    -2.15778     0.95241
H     -0.14053    -2.71397     1.77619
H      0.76000    -2.67815     0.43720
H      0.50683    -1.30758     1.27765
N     -2.98676    -1.83920     0.10087
H     -1.98536    -1.87384     0.26668
H     -3.42886    -2.35372     0.85261
H     -3.16677    -2.35695    -0.75090
N      0.97636     0.23612    -1.86705
H      0.53161    -0.51849    -1.35991
H      1.29095    -0.15840    -2.74353
H      0.24498     0.91214    -2.06897
N      0.22619     0.91441     2.47580
H      0.02687     1.65418     1.80913
H      0.17505     1.30540     3.40651
H     -0.52372     0.24081     2.39482
N     -3.11347     1.53680    -0.11156
H     -3.18045     0.52593    -0.02210
H     -2.37961     1.83277     0.52241
H     -3.98268     1.93373     0.21595
