 24
-339.61114597329987
N     -0.42443    -2.19791     0.35345
H     -1.42292    -2.36078     0.29524
H     -0.12976    -1.76081    -0.51951
H      0.01666    -3.11107     0.37453
N      1.23091     2.75479     0.61326
H      2.16592     3.14031     0.56950
H      0.75575     3.20757     1.38403
H      1.32726     1.77148     0.85346
N     -0.38389     2.06226    -2.39985
H     -0.16643     2.82754    -3.02450
H     -1.37946     2.09059    -2.22202
H      0.07421     2.26435    -1.51538
N      1.08511    -0.99665    -2.21795
H      1.78517    -0.68959    -1.55285
H      1.57451    -1.34129    -3.03249
H      0.58377    -0.15633    -2.49139
N     -3.19534    -1.54031     1.94653
H     -3.64184    -0.65870     1.72920
H     -3.49354    -1.81834     2.87248
H     -2.19984    -1.36352     1.98937
N      1.68046    -0.32194     1.55816
H      1.55717    -0.09421     2.53887
H      2.49940    -0.91686     1.51488
H      0.88372    -0.89582     1.28184
