 12
-169.7973393611089
N     -1.14891     2.61374    -0.00716
H     -1.30929     2.98481     0.91960
H     -0.25272     2.96299    -0.31930
H     -1.85329     3.00777    -0.61622
N      2.22615    -1.82784     0.00476
H      2.59790    -1.64424     0.92884
H      2.71417    -1.21889    -0.64077
H      1.24947    -1.54283     0.00898
N     -1.02108    -0.93296    -0.01794
H     -1.47441    -1.25994    -0.85991
H     -1.54472    -1.28970     0.76909
H     -1.09901     0.07759    -0.00384
