 28
-396.2203915126674
N      1.44744    -1.26309     1.37859
H      1.83316    -1.99413     1.95756
H      0.46603    -1.47080     1.23568
H      1.86513    -1.36338     0.46212
N     -0.09368     0.29895    -2.83609
H     -0.53052     1.01559    -2.26365
H      0.72608    -0.00930    -2.32744
H      0.22396     0.74251    -3.68845
N      1.12732    -2.52664    -1.90379
H      0.53264    -2.05740    -2.57751
H      1.47521    -3.37123    -2.33707
H      0.51053    -2.81133    -1.15222
N      1.67322     2.16429     1.22081
H      1.62546     1.15379     1.31822
H      2.32185     2.34601     0.46431
H      2.09533     2.52532     2.06565
N     -1.66674    -1.59455    -0.06304
H     -2.46322    -2.18034    -0.26995
H     -1.96072    -0.92680     0.64032
H     -1.46651    -1.05989    -0.90012
N     -1.32192     2.35797    -0.46890
H     -1.81361     1.72881     0.15373
H     -0.40738     2.50199    -0.05293
H     -1.81034     3.24148    -0.45770
N     -1.27380     0.64234     2.52096
H     -1.77809     0.74746     3.38879
H     -0.46303     0.06751     2.71091
H     -0.89676     1.54930     2.28011
