 16
-226.4015687312743
N      1.58456    -1.71220    -1.19721
H      2.14291    -2.49438    -0.87590
H      2.19683    -1.11555    -1.74095
H      1.30019    -1.18240    -0.37314
N     -1.56541    -1.63152    -1.14533
H     -0.57116    -1.76303    -1.31879
H     -1.99684    -2.54693    -1.16326
H     -1.93799    -1.11374    -1.93155
N     -0.27442     3.43921     1.17767
H     -1.26191     3.60748     1.03885
H      0.01331     3.97020     1.98845
H      0.21073     3.81883     0.37615
N      0.26267    -0.19098     1.16550
H      0.15327    -0.53622     2.10937
H      0.18877     0.81781     1.21160
H     -0.52895    -0.53139     0.62486
