 24
-339.6104668094866
N      0.21132    -2.73513    -1.27398
H      0.30542    -2.96132    -0.28702
H     -0.63152    -3.17758    -1.61991
H      0.99360    -3.16349    -1.75266
N      0.82034    -2.41004     1.91906
H      0.08503    -2.31775     2.60858
H      1.67641    -2.61380     2.41857
H      0.93503    -1.50055     1.47912
N      0.96050    -0.03526    -0.14687
H      0.25313     0.67443    -0.30215
H      1.77569     0.28573    -0.65591
H      0.64078    -0.89924    -0.58516
N     -2.54071    -2.10112    -2.88542
H     -1.68541    -1.63108    -2.61951
H     -2.69640    -1.91280    -3.86713
H     -3.28947    -1.66254    -2.36494
N     -1.10971     4.35427    -0.01718
H     -0.72849     5.25855    -0.26264
H     -1.85211     4.50781     0.65279
H     -0.37643     3.82840     0.45028
N      1.36289     2.56265     1.42170
H      2.28285     2.88000     1.14052
H      1.30958     2.68015     2.42686
H      1.31852     1.56904     1.22680
