 36
-509.4301998710407
N     -1.52488     1.06847    -1.96901
H     -2.45882     1.14757    -2.36060
H     -1.32062     1.97079    -1.55277
H     -1.55778     0.40943    -1.18161
N      2.88244    -0.69690    -0.06820
H      3.62899    -1.32425    -0.35295
H      2.12010    -0.83082    -0.74388
H      3.23640     0.24301    -0.21879
N      0.83113     1.72933     0.14196
H      1.45575     2.48156    -0.11109
H      1.36706     1.07577     0.70335
H      0.58436     1.24348    -0.71225
N      2.21689    -1.03977     3.06450
H      3.04322    -0.94075     3.63803
H      1.81607    -1.94633     3.26762
H      2.51347    -1.06263     2.09385
N     -1.25136    -0.81480     0.32494
H     -0.35120    -1.26781     0.19679
H     -1.13359    -0.19216     1.12654
H     -1.89713    -1.53412     0.62838
N     -3.68597    -0.67594     2.18500
H     -2.97940    -0.26081     2.77991
H     -3.57555    -0.23905     1.28021
H     -4.58916    -0.40456     2.54850
N      0.31338     0.55773    -4.39176
H     -0.28513     0.70293    -3.57537
H      0.71036     1.45697    -4.63681
H     -0.28725     0.27766    -5.15867
N     -0.57882     1.03702     2.77244
H     -0.30046     1.51651     1.92187
H      0.21184     0.45725     3.03700
H     -0.68081     1.73455     3.49659
N      0.90106    -1.45929    -2.12221
H      1.08844    -0.92951    -2.96935
H      1.12859    -2.42548    -2.32362
H     -0.10179    -1.42104    -1.99166
