 24
-339.6091156847228
N      1.04470    -0.97728    -1.08827
H      1.76630    -0.55202    -1.65730
H      1.11923    -0.57686    -0.15553
H      1.25745    -1.96449    -1.01639
N     -0.70867     2.66216     1.82744
H     -1.55676     2.10530     1.75689
H     -0.89251     3.41700     2.47564
H     -0.56918     3.07471     0.91191
N      1.27965     0.07107     1.89071
H      2.06551     0.22768     2.51200
H      0.72189     0.92484     1.88359
H      0.69564    -0.63536     2.32775
N     -3.41288     0.69455     1.15755
H     -3.60305    -0.13932     1.69700
H     -4.30542     1.08165     0.87912
H     -2.94578     0.39372     0.30628
N     -2.12225    -0.14934    -1.90970
H     -2.06426     0.61219    -2.57369
H     -1.17147    -0.37923    -1.63571
H     -2.49018    -0.95153    -2.40532
N      4.08734    -2.47206    -1.61419
H      4.90724    -1.98474    -1.95094
H      3.35494    -2.34287    -2.29951
H      3.77819    -1.99566    -0.77651
