 36
-509.42948811059824
N     -1.87711     2.81982    -0.11083
H     -0.84824     2.87323    -0.12356
H     -2.24465     3.70434    -0.44302
H     -2.16447     2.72336     0.85497
N      2.29954     0.56700     1.52587
H      1.29488     0.58874     1.73660
H      2.47525    -0.28624     1.01008
H      2.80720     0.49272     2.39845
N      2.42805     0.14015    -1.88584
H      3.24805    -0.02189    -2.45232
H      2.73258     0.55387    -1.01286
H      2.03626    -0.76287    -1.64082
N      1.02966     2.92631    -0.23113
H      1.34092     2.57697    -1.12938
H      1.39460     3.86646    -0.14146
H      1.47913     2.35118     0.47803
N     -0.59471     0.63967     1.97463
H     -0.97907     0.85262     1.05989
H     -0.97866    -0.25675     2.25581
H     -0.94734     1.33829     2.61421
N     -0.96083     0.34431    -2.00932
H      0.04296     0.46100    -1.90523
H     -1.15670     0.44280    -2.99813
H     -1.41603     1.12444    -1.54098
N      1.20036    -2.37834     0.00374
H      0.92109    -1.87618     0.83742
H      0.34126    -2.65461    -0.45611
H      1.68871    -3.21501     0.28850
N     -1.99537    -2.30223    -1.26222
H     -1.58796    -1.38057    -1.46492
H     -1.90082    -2.86520    -2.10119
H     -2.99235    -2.14842    -1.14663
N     -1.53539    -2.51876     2.01708
H     -2.37621    -2.94908     2.38006
H     -1.66460    -2.40284     1.01379
H     -0.78553    -3.19073     2.12501
