 28
-396.2159162196627
N      0.30463    -1.72211    -1.89704
H     -0.06659    -2.21218    -1.09002
H      0.14925    -0.73869    -1.71057
H     -0.26304    -1.96749    -2.69528
N      1.50404     0.32701     0.56135
H      2.32374     0.05438     0.02643
H      0.87013    -0.46181     0.56821
H      1.80415     0.47562     1.51575
N      3.56235    -1.20287    -1.57214
H      3.80532    -0.87119    -2.49739
H      4.13315    -2.01831    -1.38620
H      2.59784    -1.52287    -1.62549
N     -2.08342     2.35027     0.94983
H     -1.88506     2.64927     1.89906
H     -2.86446     2.91368     0.63089
H     -1.26669     2.59842     0.38625
N     -0.64428    -2.37512     1.27352
H     -1.45775    -1.76066     1.27624
H     -0.93139    -3.27239     1.64423
H      0.01551    -1.98585     1.93635
N      0.46609     2.92715    -0.46750
H      0.58451     3.01299    -1.47093
H      1.06292     3.62578    -0.03852
H      0.82690     2.00932    -0.18542
N     -3.11557    -0.46657     1.09143
H     -3.53854    -0.68406     0.19463
H     -3.87536    -0.35450     1.75222
H     -2.66192     0.44575     0.99425
