 24
-339.60909378213995
N     -0.35495    -4.62667    -1.67608
H     -1.11157    -5.20854    -2.01070
H     -0.76817    -3.86309    -1.15680
H      0.10687    -4.22511    -2.48177
N     -0.83948     2.57042     1.75264
H     -0.22276     3.05962     1.11755
H     -0.80524     3.06759     2.63210
H     -0.43252     1.65341     1.90194
N     -0.02867    -3.29164     1.26905
H     -0.46213    -3.72197     2.07534
H      0.34103    -4.03143     0.68412
H      0.75358    -2.74638     1.60543
N     -1.12999     3.00574    -1.44149
H     -1.39491     3.94657    -1.70112
H     -1.56311     2.80404    -0.54676
H     -1.54449     2.38668    -2.12494
N      0.20708    -0.25720     0.59380
H     -0.16689    -1.19646     0.55215
H     -0.51178     0.37118     0.25222
H      0.96617    -0.19663    -0.07371
N      2.13772     2.12020    -0.52533
H      1.87258     1.73983     0.37341
H      2.74226     2.91173    -0.35461
H      1.29027     2.46700    -0.96278
