 24
-339.6094861911654
N      0.77821    -2.83633     1.58930
H      1.16108    -3.00269     2.51119
H      0.61256    -1.83834     1.52838
H     -0.13528    -3.27049     1.57827
N     -3.27192     1.86269     1.22028
H     -3.54334     2.59586     1.86180
H     -3.47738     2.19029     0.28496
H     -3.88141     1.07415     1.39067
N      0.72916    -1.66090    -1.87564
H      0.63654    -2.03263    -2.81005
H      1.68217    -1.33233    -1.77526
H      0.65183    -2.44060    -1.23547
N     -1.66478     2.84079    -1.47261
H     -1.03226     3.55479    -1.80947
H     -1.59327     2.82846    -0.46437
H     -1.29347     1.94857    -1.77527
N      0.14006     0.58795     0.57245
H      0.02748     0.02140    -0.26350
H     -0.77377     0.75818     0.96848
H      0.50168     1.48357     0.27041
N      3.31692    -0.86602     0.16467
H      4.19823    -0.56049     0.55407
H      2.59059    -0.30002     0.58573
H      3.15375    -1.80779     0.49701
