 36
-509.42737351912695
N     -2.69558     1.12693    -1.60314
H     -2.11088     1.75535    -1.06901
H     -3.21220     1.68061    -2.27082
H     -2.07407     0.51403    -2.11666
N     -0.52021     2.78169     1.09965
H      0.19321     2.82950     1.81912
H     -0.03635     2.52852     0.23088
H     -0.87313     3.72523     0.99035
N     -0.24761    -1.12002    -1.73522
H     -0.04185    -1.85541    -2.39466
H      0.63957    -0.83129    -1.34058
H     -0.78192    -1.51687    -0.97295
N      2.55547    -2.38123    -0.37130
H      2.20524    -1.75529     0.35069
H      1.73885    -2.85396    -0.73441
H      3.12064    -3.08945     0.08008
N     -2.58896     0.05350     1.20978
H     -2.06753     0.89460     1.44164
H     -2.88782     0.18587     0.24489
H     -3.42048     0.08246     1.78830
N      0.78585     1.92833    -1.42404
H      0.83757     2.64292    -2.14071
H      1.74313     1.63148    -1.23787
H      0.30205     1.13932    -1.84693
N      3.44798     0.82201    -0.42608
H      4.23120     1.25004     0.04339
H      2.75870     0.58776     0.27764
H      3.75144    -0.05756    -0.82208
N      0.92006    -0.58520     1.59344
H      1.12935    -0.54137     2.58270
H      0.27226     0.16819     1.39704
H      0.39759    -1.44475     1.44836
N     -1.55316    -2.71762     1.45919
H     -1.53655    -2.95841     2.44386
H     -1.89460    -1.75122     1.38999
H     -2.25076    -3.31636     1.03479
