 24
-339.60797950661464
N      2.18339    -0.12184    -0.92808
H      1.46132     0.51647    -1.25341
H      3.07119     0.33843    -1.07580
H      2.16373    -0.91996    -1.54851
N      0.78822     3.06701     1.20662
H      1.13335     2.18399     1.57184
H      1.58164     3.69236     1.14833
H      0.16739     3.44090     1.91269
N     -0.51591    -2.39191    -1.60982
H     -0.28020    -2.53769    -2.58192
H     -1.36343    -1.84012    -1.59326
H      0.20193    -1.81452    -1.19584
N     -0.63004     1.76447    -1.59252
H     -1.44697     1.27386    -1.25276
H     -0.28086     2.30160    -0.80301
H     -0.94143     2.41510    -2.29972
N     -2.99903    -2.07426     0.49214
H     -3.78146    -2.65854     0.22428
H     -2.15273    -2.57879     0.25344
H     -3.02346    -1.99112     1.50078
N      1.06839    -0.17960     2.29623
H      1.25254    -0.95543     2.91681
H      0.07517    -0.18233     2.09846
H      1.51281    -0.38073     1.40486
