 24
-339.6094978039442
N      1.03752     1.52941    -0.04643
H      1.92988     1.10018     0.16506
H      1.22645     2.29470    -0.68126
H      0.67742     1.93765     0.81189
N     -1.07204     2.34755     2.38241
H     -1.45611     1.79648     1.61834
H     -1.15190     1.77803     3.21464
H     -1.68658     3.14210     2.50365
N     -1.07022    -3.95118    -1.10858
H     -1.17237    -4.20065    -0.13285
H     -1.42970    -3.00834    -1.20557
H     -1.67432    -4.56106    -1.64498
N     -2.79710     0.60457    -0.00663
H     -3.55509     0.04233     0.35982
H     -3.19638     1.21511    -0.70926
H     -2.15785    -0.01851    -0.49332
N     -0.44599    -0.72268    -1.50447
H     -0.38687    -0.34350    -2.44240
H     -0.04715    -0.01697    -0.88261
H      0.16118    -1.53298    -1.47986
N      4.45815     0.10360     0.33256
H      4.40452    -0.88600     0.53394
H      5.02246     0.21302    -0.49947
H      4.95588     0.54040     1.09691
