 24
-339.61259113952235
N      1.57633     0.67314     3.43523
H      0.93275    -0.03589     3.09749
H      2.09769     0.26097     4.19715
H      1.00989     1.41746     3.81858
N     -0.75629    -1.72866     2.31063
H     -1.24454    -1.27360     1.54551
H     -0.53704    -2.67160     2.01884
H     -1.41116    -1.80290     3.07852
N     -1.03505    -1.35142    -2.75230
H     -1.00963    -2.28385    -3.14179
H     -0.43455    -0.76505    -3.31911
H     -0.59589    -1.39853    -1.84119
N      0.31496     1.63074    -2.95754
H     -0.64810     1.37609    -2.78171
H      0.83475     1.38999    -2.11815
H      0.34426     2.63715    -3.05118
N     -1.79352     0.31843    -0.08744
H     -2.51401     0.98545     0.14914
H     -0.92970     0.84032    -0.18058
H     -2.02159    -0.07115    -0.99434
N      1.58425     0.30017    -0.02305
H      1.93600     0.84781     0.75039
H      0.85454    -0.28403     0.36463
H      2.33654    -0.31969    -0.29045
