 24
-339.6155200587324
N     -0.01465    -2.38274     0.82124
H      0.15656    -3.36273     0.98964
H      0.10503    -2.21669    -0.17221
H      0.72015    -1.85922     1.27912
N     -0.02987     2.32962     1.02145
H     -0.77517     1.77189     1.41760
H     -0.20542     3.29264     1.26606
H     -0.12772     2.24641     0.01534
N      1.33371    -0.92060    -1.90600
H      2.04473    -1.14668    -2.58657
H      1.06925     0.04568    -2.05285
H      1.76834    -0.94697    -0.99109
N     -1.31263     1.11547    -1.85687
H     -1.04505     0.16943    -2.09853
H     -1.76429     1.04783    -0.95222
H     -2.01149     1.41216    -2.52291
N     -2.60507    -0.20964     1.03858
H     -3.21102    -0.58500     0.31825
H     -1.80494    -0.83526     1.08065
H     -3.10053    -0.29669     1.91617
N      2.55034     0.13152     1.14194
H      3.00764     0.15110     2.04411
H      3.19188     0.54658     0.47614
H      1.75566     0.76349     1.19419
