 36
-509.42713960983247
N     -0.15267     1.97163    -2.14707
H     -0.58071     1.02813    -2.06101
H     -0.89633     2.64888    -1.99965
H      0.11743     2.09324    -3.11948
N      2.42499     2.63103    -0.78257
H      1.56388     2.30707    -1.23741
H      2.28408     3.61547    -0.58497
H      3.17891     2.58149    -1.45725
N      2.25633     1.59942     2.34286
H      2.32990     1.84153     1.35556
H      2.39860     2.45434     2.86552
H      3.04494     0.99719     2.55278
N      0.06099    -3.04908    -1.38116
H      0.32071    -4.00600    -1.57140
H      0.81303    -2.59392    -0.88100
H     -0.73637    -3.05384    -0.76135
N     -2.71579    -1.22103     0.60880
H     -2.52332    -0.24739     0.82988
H     -3.67045    -1.40642     0.88256
H     -2.10840    -1.78106     1.20082
N     -0.04962    -2.71056     1.90963
H      0.33556    -2.64751     2.84164
H      0.26039    -3.59240     1.52541
H      0.38300    -1.98366     1.34138
N      0.94032    -0.48418     0.15519
H      1.04842    -0.05445     1.06675
H      1.55225    -0.00448    -0.48752
H     -0.01233    -0.33012    -0.15445
N     -1.24650     1.75212     1.34957
H     -0.53243     1.57467     2.04186
H     -0.74919     1.95209     0.49145
H     -1.72316     2.59541     1.62764
N     -1.47703    -0.56119    -1.98007
H     -2.08632    -0.52831    -2.79445
H     -0.84250    -1.34723    -2.12723
H     -2.06329    -0.83578    -1.18520
