 36
-509.42615755828854
N      0.14739     1.15401    -3.73258
H      0.52385     1.79803    -4.41511
H      0.69096     0.29811    -3.79619
H     -0.78637     0.91635    -4.03977
N     -0.11918     0.60192     3.19731
H      0.18068    -0.29717     2.83832
H      0.19090     0.64292     4.16100
H      0.40016     1.31024     2.67443
N      1.65446    -1.92378    -3.60419
H      2.64481    -2.11512    -3.69258
H      1.42030    -2.00461    -2.61650
H      1.17475    -2.67027    -4.09186
N     -1.32616    -2.34828     2.20216
H     -1.60671    -1.91472     1.33117
H     -1.97444    -3.10454     2.37073
H     -1.49692    -1.64569     2.91132
N     -3.32813     0.98277     2.18746
H     -3.88305     0.50581     2.88690
H     -2.35828     0.93389     2.49488
H     -3.59256     1.95885     2.22617
N      0.44888    -2.24942    -0.68465
H      0.52759    -2.79005     0.16656
H     -0.12393    -2.79628    -1.31840
H     -0.08238    -1.40344    -0.45051
N     -1.04182     0.26339    -0.15894
H     -1.97733     0.46087     0.18378
H     -0.96949     0.65639    -1.08968
H     -0.40489     0.79659     0.41770
N      1.44089     2.56577     1.54853
H      2.30481     2.77684     2.03681
H      1.04021     3.45551     1.27265
H      1.68836     2.05322     0.69523
N      2.08795     1.02098    -0.89347
H      1.94819     0.02176    -0.79336
H      1.50006     1.31926    -1.66563
H      3.04877     1.16290    -1.17731
