 28
-396.21757636929016
N      0.71571    -1.15359    -2.94693
H      1.67401    -1.45740    -3.06821
H      0.25049    -1.84791    -2.36438
H      0.28085    -1.20383    -3.86070
N      0.83936     2.30964     2.39179
H      1.65957     2.61935     2.89886
H      0.66819     2.99561     1.66022
H      0.05928     2.37178     3.03513
N     -0.97988    -2.34024     2.00738
H     -0.24388    -1.73218     1.63202
H     -1.70721    -1.73808     2.38006
H     -0.58421    -2.83896     2.79653
N     -0.91086     1.22931    -1.03258
H     -1.89656     1.19886    -1.26180
H     -0.41634     0.76820    -1.79038
H     -0.79441     0.63247    -0.22147
N     -0.99396    -3.31672    -1.06266
H     -0.58981    -4.24572    -1.02991
H     -1.05266    -2.99735    -0.09794
H     -1.94645    -3.42586    -1.39176
N      0.11774     4.02230    -0.18935
H     -0.65770     4.65274    -0.35646
H      0.85771     4.27318    -0.83508
H     -0.19397     3.08437    -0.43995
N      1.19801    -0.69718     0.85905
H      2.08475    -1.13512     1.08015
H      1.18950    -0.55030    -0.14405
H      1.20378     0.22453     1.29380
