 28
-396.21591688115006
N      1.51830    -1.07296    -2.05253
H      1.07768    -0.16780    -2.14226
H      1.74094    -1.40378    -2.98030
H      0.81374    -1.68741    -1.66680
N     -0.29843     2.17709    -0.77176
H     -0.90486     1.41674    -1.07071
H     -0.77674     2.66792    -0.02474
H     -0.23463     2.82088    -1.54993
N     -0.48380    -1.65264     2.26459
H     -0.05633    -2.12031     3.05564
H      0.20235    -1.00192     1.87557
H     -1.25093    -1.09347     2.62274
N     -1.80100    -0.17897    -2.28021
H     -1.16632    -0.32750    -3.05487
H     -1.65197    -0.95717    -1.63972
H     -2.74156    -0.25619    -2.64455
N     -1.39013    -2.83375    -0.40000
H     -0.93133    -3.72841    -0.53327
H     -1.07010    -2.46991     0.49943
H     -2.37846    -3.03697    -0.28908
N      0.72749     3.16962     2.21487
H      0.68932     2.20134     2.50220
H      1.06647     3.16668     1.26262
H      1.41938     3.63667     2.78531
N      1.58392     0.23182     1.00776
H      2.28109     0.78514     1.49052
H      2.07904    -0.35658     0.34652
H      1.02034     0.87616     0.45082
