 24
-339.61198021915914
N      1.86017    -2.34670     1.17306
H      0.88949    -2.30298     0.88399
H      2.35547    -2.91310     0.49826
H      1.88270    -2.85493     2.04797
N     -1.12111    -0.91240     1.49153
H     -1.87137    -1.13114     2.13742
H     -0.27802    -0.81388     2.04536
H     -1.30797     0.02092     1.12588
N     -0.52122    -1.51047    -1.79059
H      0.46640    -1.44071    -1.58730
H     -0.99084    -1.45537    -0.89263
H     -0.69687    -2.42482    -2.18121
N     -1.51606     1.62426    -2.84673
H     -2.45384     1.57040    -3.22198
H     -0.89901     1.89241    -3.60215
H     -1.25419     0.68304    -2.56861
N     -0.99515     2.04945     0.54807
H     -1.21651     2.93700     0.97727
H     -0.01519     1.85400     0.73558
H     -1.09405     2.16729    -0.45494
N      2.28623     1.09442     1.36086
H      2.23774     0.08709     1.26016
H      2.96526     1.42738     0.69035
H      2.65504     1.28609     2.28215
